2,4,6,8,10,12,14,16,18,20,22,24,26,28,30,32,34-HEPTADECAMETHYL-1,34-PENTATRIACON
  ACD/LABS04092412213D
Library ID = 1
 52 51  0  0  0  0  0  0  0  0  1 V2000
    1.6978   -8.3303    0.0000 C   0  0  0  0  0  0  0  0  0  0  0  0
    2.8496   -7.6652    0.0000 C   0  0  0  0  0  0  0  0  0  0  0  0
    4.0015   -8.3303    0.0000 C   0  0  0  0  0  0  0  0  0  0  0  0
    2.8496   -6.3352    0.0000 C   0  0  0  0  0  0  0  0  0  0  0  0
    5.1533   -7.6652    0.0000 C   0  0  0  0  0  0  0  0  0  0  0  0
    5.1533   -6.3352    0.0000 C   0  0  0  0  0  0  0  0  0  0  0  0
    6.3051   -8.3303    0.0000 C   0  0  0  0  0  0  0  0  0  0  0  0
    7.4569   -7.6652    0.0000 C   0  0  0  0  0  0  0  0  0  0  0  0
    7.4569   -6.3352    0.0000 C   0  0  0  0  0  0  0  0  0  0  0  0
    8.6087   -8.3303    0.0000 C   0  0  0  0  0  0  0  0  0  0  0  0
    9.7605   -7.6652    0.0000 C   0  0  0  0  0  0  0  0  0  0  0  0
    9.7605   -6.3352    0.0000 C   0  0  0  0  0  0  0  0  0  0  0  0
   10.9123   -8.3303    0.0000 C   0  0  0  0  0  0  0  0  0  0  0  0
   12.0642   -7.6652    0.0000 C   0  0  0  0  0  0  0  0  0  0  0  0
   12.0642   -6.3352    0.0000 C   0  0  0  0  0  0  0  0  0  0  0  0
   13.2161   -8.3303    0.0000 C   0  0  0  0  0  0  0  0  0  0  0  0
   14.3679   -7.6652    0.0000 C   0  0  0  0  0  0  0  0  0  0  0  0
   14.3679   -6.3352    0.0000 C   0  0  0  0  0  0  0  0  0  0  0  0
   15.5197   -8.3303    0.0000 C   0  0  0  0  0  0  0  0  0  0  0  0
   16.6715   -7.6652    0.0000 C   0  0  0  0  0  0  0  0  0  0  0  0
   16.6715   -6.3352    0.0000 C   0  0  0  0  0  0  0  0  0  0  0  0
   17.8233   -8.3303    0.0000 C   0  0  0  0  0  0  0  0  0  0  0  0
   18.9751   -7.6652    0.0000 C   0  0  0  0  0  0  0  0  0  0  0  0
   18.9751   -6.3352    0.0000 C   0  0  0  0  0  0  0  0  0  0  0  0
   20.1269   -8.3302    0.0000 C   0  0  0  0  0  0  0  0  0  0  0  0
   21.2787   -7.6652    0.0000 C   0  0  0  0  0  0  0  0  0  0  0  0
   21.2787   -6.3352    0.0000 C   0  0  0  0  0  0  0  0  0  0  0  0
   22.4306   -8.3302    0.0000 C   0  0  0  0  0  0  0  0  0  0  0  0
   23.5824   -7.6652    0.0000 C   0  0  0  0  0  0  0  0  0  0  0  0
   23.5824   -6.3352    0.0000 C   0  0  0  0  0  0  0  0  0  0  0  0
   24.7342   -8.3302    0.0000 C   0  0  0  0  0  0  0  0  0  0  0  0
   25.8860   -7.6652    0.0000 C   0  0  0  0  0  0  0  0  0  0  0  0
   25.8860   -6.3352    0.0000 C   0  0  0  0  0  0  0  0  0  0  0  0
   27.0378   -8.3302    0.0000 C   0  0  0  0  0  0  0  0  0  0  0  0
   28.1896   -7.6652    0.0000 C   0  0  0  0  0  0  0  0  0  0  0  0
   28.1896   -6.3352    0.0000 C   0  0  0  0  0  0  0  0  0  0  0  0
   29.3414   -8.3302    0.0000 C   0  0  0  0  0  0  0  0  0  0  0  0
   30.4932   -7.6652    0.0000 C   0  0  0  0  0  0  0  0  0  0  0  0
   30.4932   -6.3352    0.0000 C   0  0  0  0  0  0  0  0  0  0  0  0
   31.6450   -8.3302    0.0000 C   0  0  0  0  0  0  0  0  0  0  0  0
   32.7969   -7.6652    0.0000 C   0  0  0  0  0  0  0  0  0  0  0  0
   32.7968   -6.3352    0.0000 C   0  0  0  0  0  0  0  0  0  0  0  0
   33.9487   -8.3302    0.0000 C   0  0  0  0  0  0  0  0  0  0  0  0
   35.1005   -7.6652    0.0000 C   0  0  0  0  0  0  0  0  0  0  0  0
   35.1005   -6.3352    0.0000 C   0  0  0  0  0  0  0  0  0  0  0  0
   36.2523   -8.3302    0.0000 C   0  0  0  0  0  0  0  0  0  0  0  0
   37.4041   -7.6652    0.0000 C   0  0  0  0  0  0  0  0  0  0  0  0
   37.4041   -6.3352    0.0000 C   0  0  0  0  0  0  0  0  0  0  0  0
   38.5559   -8.3302    0.0000 C   0  0  0  0  0  0  0  0  0  0  0  0
   39.7077   -7.6652    0.0000 C   0  0  0  0  0  0  0  0  0  0  0  0
   39.7077   -6.3352    0.0000 C   0  0  0  0  0  0  0  0  0  0  0  0
   40.8595   -8.3301    0.0000 C   0  0  0  0  0  0  0  0  0  0  0  0
  1  2  2  0  0  0  0
  2  3  1  0  0  0  0
  2  4  1  0  0  0  0
  3  5  1  0  0  0  0
  5  6  1  0  0  0  0
  5  7  1  0  0  0  0
  7  8  1  0  0  0  0
  8  9  1  0  0  0  0
  8 10  1  0  0  0  0
 10 11  1  0  0  0  0
 11 12  1  0  0  0  0
 11 13  1  0  0  0  0
 13 14  1  0  0  0  0
 14 15  1  0  0  0  0
 14 16  1  0  0  0  0
 16 17  1  0  0  0  0
 17 18  1  0  0  0  0
 17 19  1  0  0  0  0
 19 20  1  0  0  0  0
 20 21  1  0  0  0  0
 20 22  1  0  0  0  0
 22 23  1  0  0  0  0
 23 24  1  0  0  0  0
 23 25  1  0  0  0  0
 25 26  1  0  0  0  0
 26 27  1  0  0  0  0
 26 28  1  0  0  0  0
 28 29  1  0  0  0  0
 29 30  1  0  0  0  0
 29 31  1  0  0  0  0
 31 32  1  0  0  0  0
 32 33  1  0  0  0  0
 32 34  1  0  0  0  0
 34 35  1  0  0  0  0
 35 36  1  0  0  0  0
 35 37  1  0  0  0  0
 37 38  1  0  0  0  0
 38 39  1  0  0  0  0
 38 40  1  0  0  0  0
 40 41  1  0  0  0  0
 41 42  1  0  0  0  0
 41 43  1  0  0  0  0
 43 44  1  0  0  0  0
 44 45  1  0  0  0  0
 44 46  1  0  0  0  0
 46 47  1  0  0  0  0
 47 48  1  0  0  0  0
 47 49  1  0  0  0  0
 49 50  1  0  0  0  0
 50 51  1  0  0  0  0
 50 52  2  0  0  0  0
M  END
>  <NAME>
2,4,6,8,10,12,14,16,18,20,22,24,26,28,30,32,34-Heptadecamethyl-1,34-pentatriacontadiene (isomer)

>  <INCHIKEY>
GYDXWXYTFWGXMZ-UHFFFAOYSA-N

>  <POLYMER>
iso-PP (23)

>  <RETENTION INDEX>
SemiStdNP=3909.6

>  <FORMULA>
C52H102

>  <MW>
726

>  <EXACT MASS>
726.798153

>  <ID>
1

>  <COMMENT>
stereochemistry unknown

>  <NUM PEAKS>
59

>  <MASS SPECTRAL PEAKS>
29 13
36 5
39 13
41 68
42 14
43 178
50 5
53 4
55 192
56 40
57 473
58 20
67 25
68 18
69 999
70 123
71 433
72 23
81 28
82 103
83 604
84 115
85 271
86 18
95 62
96 68
97 256
98 27
99 110
100 11
109 166
110 68
111 319
112 44
113 75
122 4
123 119
124 59
125 393
126 59
127 53
137 36
138 24
139 80
140 9
141 34
151 38
152 10
153 109
154 15
155 19
165 33
166 14
167 22
168 9
169 11
181 6
193 10
207 14

$$$$
2,4,6,8,10,12,14,16,18,20,22,24,26,28,30,32-HEXADECAMETHYL-1,32-TRITRIACONTADIEN
  ACD/LABS04092412173D
Library ID = 2
 49 48  0  0  0  0  0  0  0  0  1 V2000
    1.6978   -8.3303    0.0000 C   0  0  0  0  0  0  0  0  0  0  0  0
    2.8496   -7.6652    0.0000 C   0  0  0  0  0  0  0  0  0  0  0  0
    4.0015   -8.3303    0.0000 C   0  0  0  0  0  0  0  0  0  0  0  0
    2.8496   -6.3352    0.0000 C   0  0  0  0  0  0  0  0  0  0  0  0
    5.1533   -7.6652    0.0000 C   0  0  0  0  0  0  0  0  0  0  0  0
    5.1533   -6.3352    0.0000 C   0  0  0  0  0  0  0  0  0  0  0  0
    6.3051   -8.3303    0.0000 C   0  0  0  0  0  0  0  0  0  0  0  0
    7.4569   -7.6652    0.0000 C   0  0  0  0  0  0  0  0  0  0  0  0
    7.4569   -6.3352    0.0000 C   0  0  0  0  0  0  0  0  0  0  0  0
    8.6087   -8.3303    0.0000 C   0  0  0  0  0  0  0  0  0  0  0  0
    9.7605   -7.6652    0.0000 C   0  0  0  0  0  0  0  0  0  0  0  0
    9.7605   -6.3352    0.0000 C   0  0  0  0  0  0  0  0  0  0  0  0
   10.9123   -8.3303    0.0000 C   0  0  0  0  0  0  0  0  0  0  0  0
   12.0642   -7.6652    0.0000 C   0  0  0  0  0  0  0  0  0  0  0  0
   12.0642   -6.3352    0.0000 C   0  0  0  0  0  0  0  0  0  0  0  0
   13.2161   -8.3303    0.0000 C   0  0  0  0  0  0  0  0  0  0  0  0
   14.3679   -7.6652    0.0000 C   0  0  0  0  0  0  0  0  0  0  0  0
   14.3679   -6.3352    0.0000 C   0  0  0  0  0  0  0  0  0  0  0  0
   15.5197   -8.3303    0.0000 C   0  0  0  0  0  0  0  0  0  0  0  0
   16.6715   -7.6652    0.0000 C   0  0  0  0  0  0  0  0  0  0  0  0
   16.6715   -6.3352    0.0000 C   0  0  0  0  0  0  0  0  0  0  0  0
   17.8233   -8.3303    0.0000 C   0  0  0  0  0  0  0  0  0  0  0  0
   18.9751   -7.6652    0.0000 C   0  0  0  0  0  0  0  0  0  0  0  0
   18.9751   -6.3352    0.0000 C   0  0  0  0  0  0  0  0  0  0  0  0
   20.1269   -8.3302    0.0000 C   0  0  0  0  0  0  0  0  0  0  0  0
   21.2787   -7.6652    0.0000 C   0  0  0  0  0  0  0  0  0  0  0  0
   21.2787   -6.3352    0.0000 C   0  0  0  0  0  0  0  0  0  0  0  0
   22.4306   -8.3302    0.0000 C   0  0  0  0  0  0  0  0  0  0  0  0
   23.5824   -7.6652    0.0000 C   0  0  0  0  0  0  0  0  0  0  0  0
   23.5824   -6.3352    0.0000 C   0  0  0  0  0  0  0  0  0  0  0  0
   24.7342   -8.3302    0.0000 C   0  0  0  0  0  0  0  0  0  0  0  0
   25.8860   -7.6652    0.0000 C   0  0  0  0  0  0  0  0  0  0  0  0
   25.8860   -6.3352    0.0000 C   0  0  0  0  0  0  0  0  0  0  0  0
   27.0378   -8.3302    0.0000 C   0  0  0  0  0  0  0  0  0  0  0  0
   28.1896   -7.6652    0.0000 C   0  0  0  0  0  0  0  0  0  0  0  0
   28.1896   -6.3352    0.0000 C   0  0  0  0  0  0  0  0  0  0  0  0
   29.3414   -8.3302    0.0000 C   0  0  0  0  0  0  0  0  0  0  0  0
   30.4932   -7.6652    0.0000 C   0  0  0  0  0  0  0  0  0  0  0  0
   30.4932   -6.3352    0.0000 C   0  0  0  0  0  0  0  0  0  0  0  0
   31.6450   -8.3302    0.0000 C   0  0  0  0  0  0  0  0  0  0  0  0
   32.7969   -7.6652    0.0000 C   0  0  0  0  0  0  0  0  0  0  0  0
   32.7968   -6.3352    0.0000 C   0  0  0  0  0  0  0  0  0  0  0  0
   33.9487   -8.3302    0.0000 C   0  0  0  0  0  0  0  0  0  0  0  0
   35.1005   -7.6652    0.0000 C   0  0  0  0  0  0  0  0  0  0  0  0
   35.1005   -6.3352    0.0000 C   0  0  0  0  0  0  0  0  0  0  0  0
   36.2523   -8.3302    0.0000 C   0  0  0  0  0  0  0  0  0  0  0  0
   37.4041   -7.6652    0.0000 C   0  0  0  0  0  0  0  0  0  0  0  0
   37.4041   -6.3352    0.0000 C   0  0  0  0  0  0  0  0  0  0  0  0
   38.5559   -8.3302    0.0000 C   0  0  0  0  0  0  0  0  0  0  0  0
  1  2  2  0  0  0  0
  2  3  1  0  0  0  0
  2  4  1  0  0  0  0
  3  5  1  0  0  0  0
  5  6  1  0  0  0  0
  5  7  1  0  0  0  0
  7  8  1  0  0  0  0
  8  9  1  0  0  0  0
  8 10  1  0  0  0  0
 10 11  1  0  0  0  0
 11 12  1  0  0  0  0
 11 13  1  0  0  0  0
 13 14  1  0  0  0  0
 14 15  1  0  0  0  0
 14 16  1  0  0  0  0
 16 17  1  0  0  0  0
 17 18  1  0  0  0  0
 17 19  1  0  0  0  0
 19 20  1  0  0  0  0
 20 21  1  0  0  0  0
 20 22  1  0  0  0  0
 22 23  1  0  0  0  0
 23 24  1  0  0  0  0
 23 25  1  0  0  0  0
 25 26  1  0  0  0  0
 26 27  1  0  0  0  0
 26 28  1  0  0  0  0
 28 29  1  0  0  0  0
 29 30  1  0  0  0  0
 29 31  1  0  0  0  0
 31 32  1  0  0  0  0
 32 33  1  0  0  0  0
 32 34  1  0  0  0  0
 34 35  1  0  0  0  0
 35 36  1  0  0  0  0
 35 37  1  0  0  0  0
 37 38  1  0  0  0  0
 38 39  1  0  0  0  0
 38 40  1  0  0  0  0
 40 41  1  0  0  0  0
 41 42  1  0  0  0  0
 41 43  1  0  0  0  0
 43 44  1  0  0  0  0
 44 45  1  0  0  0  0
 44 46  1  0  0  0  0
 46 47  1  0  0  0  0
 47 48  1  0  0  0  0
 47 49  2  0  0  0  0
M  END
>  <NAME>
2,4,6,8,10,12,14,16,18,20,22,24,26,28,30,32-Hexadecamethyl-1,32-tritriacontadiene (isomer)

>  <INCHIKEY>
JQCUNEGUFQPOGU-UHFFFAOYSA-N

>  <POLYMER>
iso-PP (23)

>  <RETENTION INDEX>
SemiStdNP=3699

>  <FORMULA>
C49H96

>  <MW>
684

>  <EXACT MASS>
684.7512

>  <ID>
2

>  <COMMENT>
stereochemistry unknown

>  <NUM PEAKS>
58

>  <MASS SPECTRAL PEAKS>
29 13
30 2
39 11
41 74
42 13
43 179
44 4
55 208
56 37
57 462
58 23
67 28
68 22
69 999
70 124
71 398
72 20
76 2
81 30
82 101
83 605
84 113
85 254
86 16
95 60
96 65
97 249
98 26
99 101
100 3
109 169
110 66
111 306
112 41
113 68
114 4
123 119
124 58
125 365
126 53
127 47
137 39
138 28
139 75
140 9
141 27
151 35
152 13
153 96
154 13
155 17
165 31
166 14
167 22
169 4
183 4
193 9
207 14

$$$$
2,4,6,8,10,12,14,16,18,20,22,24,26,28,30-PENTADECAMETHYL-1,30-HENTRIACONTADIENE 
  ACD/LABS04092412103D
Library ID = 3
 46 45  0  0  0  0  0  0  0  0  1 V2000
    1.6978   -8.3303    0.0000 C   0  0  0  0  0  0  0  0  0  0  0  0
    2.8496   -7.6652    0.0000 C   0  0  0  0  0  0  0  0  0  0  0  0
    4.0015   -8.3303    0.0000 C   0  0  0  0  0  0  0  0  0  0  0  0
    2.8496   -6.3352    0.0000 C   0  0  0  0  0  0  0  0  0  0  0  0
    5.1533   -7.6652    0.0000 C   0  0  0  0  0  0  0  0  0  0  0  0
    5.1533   -6.3352    0.0000 C   0  0  0  0  0  0  0  0  0  0  0  0
    6.3051   -8.3303    0.0000 C   0  0  0  0  0  0  0  0  0  0  0  0
    7.4569   -7.6652    0.0000 C   0  0  0  0  0  0  0  0  0  0  0  0
    7.4569   -6.3352    0.0000 C   0  0  0  0  0  0  0  0  0  0  0  0
    8.6087   -8.3303    0.0000 C   0  0  0  0  0  0  0  0  0  0  0  0
    9.7605   -7.6652    0.0000 C   0  0  0  0  0  0  0  0  0  0  0  0
    9.7605   -6.3352    0.0000 C   0  0  0  0  0  0  0  0  0  0  0  0
   10.9123   -8.3303    0.0000 C   0  0  0  0  0  0  0  0  0  0  0  0
   12.0642   -7.6652    0.0000 C   0  0  0  0  0  0  0  0  0  0  0  0
   12.0642   -6.3352    0.0000 C   0  0  0  0  0  0  0  0  0  0  0  0
   13.2161   -8.3303    0.0000 C   0  0  0  0  0  0  0  0  0  0  0  0
   14.3679   -7.6652    0.0000 C   0  0  0  0  0  0  0  0  0  0  0  0
   14.3679   -6.3352    0.0000 C   0  0  0  0  0  0  0  0  0  0  0  0
   15.5197   -8.3303    0.0000 C   0  0  0  0  0  0  0  0  0  0  0  0
   16.6715   -7.6652    0.0000 C   0  0  0  0  0  0  0  0  0  0  0  0
   16.6715   -6.3352    0.0000 C   0  0  0  0  0  0  0  0  0  0  0  0
   17.8233   -8.3303    0.0000 C   0  0  0  0  0  0  0  0  0  0  0  0
   18.9751   -7.6652    0.0000 C   0  0  0  0  0  0  0  0  0  0  0  0
   18.9751   -6.3352    0.0000 C   0  0  0  0  0  0  0  0  0  0  0  0
   20.1269   -8.3302    0.0000 C   0  0  0  0  0  0  0  0  0  0  0  0
   21.2787   -7.6652    0.0000 C   0  0  0  0  0  0  0  0  0  0  0  0
   21.2787   -6.3352    0.0000 C   0  0  0  0  0  0  0  0  0  0  0  0
   22.4306   -8.3302    0.0000 C   0  0  0  0  0  0  0  0  0  0  0  0
   23.5824   -7.6652    0.0000 C   0  0  0  0  0  0  0  0  0  0  0  0
   23.5824   -6.3352    0.0000 C   0  0  0  0  0  0  0  0  0  0  0  0
   24.7342   -8.3302    0.0000 C   0  0  0  0  0  0  0  0  0  0  0  0
   25.8860   -7.6652    0.0000 C   0  0  0  0  0  0  0  0  0  0  0  0
   25.8860   -6.3352    0.0000 C   0  0  0  0  0  0  0  0  0  0  0  0
   27.0378   -8.3302    0.0000 C   0  0  0  0  0  0  0  0  0  0  0  0
   28.1896   -7.6652    0.0000 C   0  0  0  0  0  0  0  0  0  0  0  0
   28.1896   -6.3352    0.0000 C   0  0  0  0  0  0  0  0  0  0  0  0
   29.3414   -8.3302    0.0000 C   0  0  0  0  0  0  0  0  0  0  0  0
   30.4932   -7.6652    0.0000 C   0  0  0  0  0  0  0  0  0  0  0  0
   30.4932   -6.3352    0.0000 C   0  0  0  0  0  0  0  0  0  0  0  0
   31.6450   -8.3302    0.0000 C   0  0  0  0  0  0  0  0  0  0  0  0
   32.7969   -7.6652    0.0000 C   0  0  0  0  0  0  0  0  0  0  0  0
   32.7968   -6.3352    0.0000 C   0  0  0  0  0  0  0  0  0  0  0  0
   33.9487   -8.3302    0.0000 C   0  0  0  0  0  0  0  0  0  0  0  0
   35.1005   -7.6652    0.0000 C   0  0  0  0  0  0  0  0  0  0  0  0
   35.1005   -6.3352    0.0000 C   0  0  0  0  0  0  0  0  0  0  0  0
   36.2523   -8.3302    0.0000 C   0  0  0  0  0  0  0  0  0  0  0  0
  1  2  2  0  0  0  0
  2  3  1  0  0  0  0
  2  4  1  0  0  0  0
  3  5  1  0  0  0  0
  5  6  1  0  0  0  0
  5  7  1  0  0  0  0
  7  8  1  0  0  0  0
  8  9  1  0  0  0  0
  8 10  1  0  0  0  0
 10 11  1  0  0  0  0
 11 12  1  0  0  0  0
 11 13  1  0  0  0  0
 13 14  1  0  0  0  0
 14 15  1  0  0  0  0
 14 16  1  0  0  0  0
 16 17  1  0  0  0  0
 17 18  1  0  0  0  0
 17 19  1  0  0  0  0
 19 20  1  0  0  0  0
 20 21  1  0  0  0  0
 20 22  1  0  0  0  0
 22 23  1  0  0  0  0
 23 24  1  0  0  0  0
 23 25  1  0  0  0  0
 25 26  1  0  0  0  0
 26 27  1  0  0  0  0
 26 28  1  0  0  0  0
 28 29  1  0  0  0  0
 29 30  1  0  0  0  0
 29 31  1  0  0  0  0
 31 32  1  0  0  0  0
 32 33  1  0  0  0  0
 32 34  1  0  0  0  0
 34 35  1  0  0  0  0
 35 36  1  0  0  0  0
 35 37  1  0  0  0  0
 37 38  1  0  0  0  0
 38 39  1  0  0  0  0
 38 40  1  0  0  0  0
 40 41  1  0  0  0  0
 41 42  1  0  0  0  0
 41 43  1  0  0  0  0
 43 44  1  0  0  0  0
 44 45  1  0  0  0  0
 44 46  2  0  0  0  0
M  END
>  <NAME>
2,4,6,8,10,12,14,16,18,20,22,24,26,28,30-Pentadecamethyl-1,30-hentriacontadiene (isomer)

>  <INCHIKEY>
FROFZZRUSIITQS-UHFFFAOYSA-N

>  <POLYMER>
iso-PP (23)

>  <RETENTION INDEX>
SemiStdNP=3488.8

>  <FORMULA>
C46H90

>  <MW>
642

>  <EXACT MASS>
642.704254

>  <ID>
3

>  <COMMENT>
stereochemistry unknown

>  <NUM PEAKS>
60

>  <MASS SPECTRAL PEAKS>
27 3
29 10
39 10
41 80
42 8
43 191
44 3
53 4
55 223
56 46
57 439
58 19
63 3
67 28
68 22
69 999
70 116
71 374
72 22
81 30
82 97
83 593
84 108
85 232
86 15
95 59
96 63
97 243
98 27
99 93
109 171
110 67
111 290
112 41
113 64
123 126
124 54
125 346
126 48
127 37
137 36
138 22
139 73
140 4
141 25
151 36
152 14
153 90
154 13
155 12
165 31
166 10
167 18
169 3
179 3
180 4
193 9
195 2
207 4
256 4

$$$$
2,4,6,8,10,12,14,16,18,20,22,24,26,28-TETRADECAMETHYL-1,28-NONACOSADIENE (ISOMER
  ACD/LABS04092412063D
Library ID = 4
 43 42  0  0  0  0  0  0  0  0  1 V2000
    1.6978   -8.3303    0.0000 C   0  0  0  0  0  0  0  0  0  0  0  0
    2.8496   -7.6652    0.0000 C   0  0  0  0  0  0  0  0  0  0  0  0
    4.0015   -8.3303    0.0000 C   0  0  0  0  0  0  0  0  0  0  0  0
    2.8496   -6.3352    0.0000 C   0  0  0  0  0  0  0  0  0  0  0  0
    5.1533   -7.6652    0.0000 C   0  0  0  0  0  0  0  0  0  0  0  0
    5.1533   -6.3352    0.0000 C   0  0  0  0  0  0  0  0  0  0  0  0
    6.3051   -8.3303    0.0000 C   0  0  0  0  0  0  0  0  0  0  0  0
    7.4569   -7.6652    0.0000 C   0  0  0  0  0  0  0  0  0  0  0  0
    7.4569   -6.3352    0.0000 C   0  0  0  0  0  0  0  0  0  0  0  0
    8.6087   -8.3303    0.0000 C   0  0  0  0  0  0  0  0  0  0  0  0
    9.7605   -7.6652    0.0000 C   0  0  0  0  0  0  0  0  0  0  0  0
    9.7605   -6.3352    0.0000 C   0  0  0  0  0  0  0  0  0  0  0  0
   10.9123   -8.3303    0.0000 C   0  0  0  0  0  0  0  0  0  0  0  0
   12.0642   -7.6652    0.0000 C   0  0  0  0  0  0  0  0  0  0  0  0
   12.0642   -6.3352    0.0000 C   0  0  0  0  0  0  0  0  0  0  0  0
   13.2161   -8.3303    0.0000 C   0  0  0  0  0  0  0  0  0  0  0  0
   14.3679   -7.6652    0.0000 C   0  0  0  0  0  0  0  0  0  0  0  0
   14.3679   -6.3352    0.0000 C   0  0  0  0  0  0  0  0  0  0  0  0
   15.5197   -8.3303    0.0000 C   0  0  0  0  0  0  0  0  0  0  0  0
   16.6715   -7.6652    0.0000 C   0  0  0  0  0  0  0  0  0  0  0  0
   16.6715   -6.3352    0.0000 C   0  0  0  0  0  0  0  0  0  0  0  0
   17.8233   -8.3303    0.0000 C   0  0  0  0  0  0  0  0  0  0  0  0
   18.9751   -7.6652    0.0000 C   0  0  0  0  0  0  0  0  0  0  0  0
   18.9751   -6.3352    0.0000 C   0  0  0  0  0  0  0  0  0  0  0  0
   20.1269   -8.3302    0.0000 C   0  0  0  0  0  0  0  0  0  0  0  0
   21.2787   -7.6652    0.0000 C   0  0  0  0  0  0  0  0  0  0  0  0
   21.2787   -6.3352    0.0000 C   0  0  0  0  0  0  0  0  0  0  0  0
   22.4306   -8.3302    0.0000 C   0  0  0  0  0  0  0  0  0  0  0  0
   23.5824   -7.6652    0.0000 C   0  0  0  0  0  0  0  0  0  0  0  0
   23.5824   -6.3352    0.0000 C   0  0  0  0  0  0  0  0  0  0  0  0
   24.7342   -8.3302    0.0000 C   0  0  0  0  0  0  0  0  0  0  0  0
   25.8860   -7.6652    0.0000 C   0  0  0  0  0  0  0  0  0  0  0  0
   25.8860   -6.3352    0.0000 C   0  0  0  0  0  0  0  0  0  0  0  0
   27.0378   -8.3302    0.0000 C   0  0  0  0  0  0  0  0  0  0  0  0
   28.1896   -7.6652    0.0000 C   0  0  0  0  0  0  0  0  0  0  0  0
   28.1896   -6.3352    0.0000 C   0  0  0  0  0  0  0  0  0  0  0  0
   29.3414   -8.3302    0.0000 C   0  0  0  0  0  0  0  0  0  0  0  0
   30.4932   -7.6652    0.0000 C   0  0  0  0  0  0  0  0  0  0  0  0
   30.4932   -6.3352    0.0000 C   0  0  0  0  0  0  0  0  0  0  0  0
   31.6450   -8.3302    0.0000 C   0  0  0  0  0  0  0  0  0  0  0  0
   32.7969   -7.6652    0.0000 C   0  0  0  0  0  0  0  0  0  0  0  0
   32.7968   -6.3352    0.0000 C   0  0  0  0  0  0  0  0  0  0  0  0
   33.9487   -8.3302    0.0000 C   0  0  0  0  0  0  0  0  0  0  0  0
  1  2  2  0  0  0  0
  2  3  1  0  0  0  0
  2  4  1  0  0  0  0
  3  5  1  0  0  0  0
  5  6  1  0  0  0  0
  5  7  1  0  0  0  0
  7  8  1  0  0  0  0
  8  9  1  0  0  0  0
  8 10  1  0  0  0  0
 10 11  1  0  0  0  0
 11 12  1  0  0  0  0
 11 13  1  0  0  0  0
 13 14  1  0  0  0  0
 14 15  1  0  0  0  0
 14 16  1  0  0  0  0
 16 17  1  0  0  0  0
 17 18  1  0  0  0  0
 17 19  1  0  0  0  0
 19 20  1  0  0  0  0
 20 21  1  0  0  0  0
 20 22  1  0  0  0  0
 22 23  1  0  0  0  0
 23 24  1  0  0  0  0
 23 25  1  0  0  0  0
 25 26  1  0  0  0  0
 26 27  1  0  0  0  0
 26 28  1  0  0  0  0
 28 29  1  0  0  0  0
 29 30  1  0  0  0  0
 29 31  1  0  0  0  0
 31 32  1  0  0  0  0
 32 33  1  0  0  0  0
 32 34  1  0  0  0  0
 34 35  1  0  0  0  0
 35 36  1  0  0  0  0
 35 37  1  0  0  0  0
 37 38  1  0  0  0  0
 38 39  1  0  0  0  0
 38 40  1  0  0  0  0
 40 41  1  0  0  0  0
 41 42  1  0  0  0  0
 41 43  2  0  0  0  0
M  END
>  <NAME>
2,4,6,8,10,12,14,16,18,20,22,24,26,28-Tetradecamethyl-1,28-nonacosadiene (isomer)

>  <INCHIKEY>
WBGURPSEECSWLQ-UHFFFAOYSA-N

>  <POLYMER>
iso-PP (23)

>  <RETENTION INDEX>
SemiStdNP=3278.4

>  <FORMULA>
C43H84

>  <MW>
600

>  <EXACT MASS>
600.657303

>  <ID>
4

>  <COMMENT>
stereochemistry unknown

>  <NUM PEAKS>
57

>  <MASS SPECTRAL PEAKS>
27 3
29 14
39 13
41 86
42 15
43 200
53 2
55 247
56 47
57 415
58 16
62 4
63 2
67 30
68 21
69 999
70 122
71 371
72 17
81 35
82 106
83 592
84 115
85 217
86 13
92 3
95 64
96 62
97 237
98 24
99 87
100 4
109 175
110 69
111 294
112 35
113 53
123 123
124 54
125 331
126 49
127 33
137 39
138 22
139 66
140 4
141 19
151 38
152 16
153 80
154 10
155 14
165 32
166 9
167 15
179 3
193 11

$$$$
2,4,6,8,10,12,14,16,18,20,22,24,26-TRIDECAMETHYL-1,26-HEPTACOSADIENE (ISOMER)
  ACD/LABS04092412013D
CAS rn = 2911542544, Library ID = 5
 40 39  0  0  0  0  0  0  0  0  1 V2000
    1.6978   -8.3303    0.0000 C   0  0  0  0  0  0  0  0  0  0  0  0
    2.8496   -7.6652    0.0000 C   0  0  0  0  0  0  0  0  0  0  0  0
    4.0015   -8.3303    0.0000 C   0  0  0  0  0  0  0  0  0  0  0  0
    2.8496   -6.3352    0.0000 C   0  0  0  0  0  0  0  0  0  0  0  0
    5.1533   -7.6652    0.0000 C   0  0  0  0  0  0  0  0  0  0  0  0
    5.1533   -6.3352    0.0000 C   0  0  0  0  0  0  0  0  0  0  0  0
    6.3051   -8.3303    0.0000 C   0  0  0  0  0  0  0  0  0  0  0  0
    7.4569   -7.6652    0.0000 C   0  0  0  0  0  0  0  0  0  0  0  0
    7.4569   -6.3352    0.0000 C   0  0  0  0  0  0  0  0  0  0  0  0
    8.6087   -8.3303    0.0000 C   0  0  0  0  0  0  0  0  0  0  0  0
    9.7605   -7.6652    0.0000 C   0  0  0  0  0  0  0  0  0  0  0  0
    9.7605   -6.3352    0.0000 C   0  0  0  0  0  0  0  0  0  0  0  0
   10.9123   -8.3303    0.0000 C   0  0  0  0  0  0  0  0  0  0  0  0
   12.0642   -7.6652    0.0000 C   0  0  0  0  0  0  0  0  0  0  0  0
   12.0642   -6.3352    0.0000 C   0  0  0  0  0  0  0  0  0  0  0  0
   13.2161   -8.3303    0.0000 C   0  0  0  0  0  0  0  0  0  0  0  0
   14.3679   -7.6652    0.0000 C   0  0  0  0  0  0  0  0  0  0  0  0
   14.3679   -6.3352    0.0000 C   0  0  0  0  0  0  0  0  0  0  0  0
   15.5197   -8.3303    0.0000 C   0  0  0  0  0  0  0  0  0  0  0  0
   16.6715   -7.6652    0.0000 C   0  0  0  0  0  0  0  0  0  0  0  0
   16.6715   -6.3352    0.0000 C   0  0  0  0  0  0  0  0  0  0  0  0
   17.8233   -8.3303    0.0000 C   0  0  0  0  0  0  0  0  0  0  0  0
   18.9751   -7.6652    0.0000 C   0  0  0  0  0  0  0  0  0  0  0  0
   18.9751   -6.3352    0.0000 C   0  0  0  0  0  0  0  0  0  0  0  0
   20.1269   -8.3302    0.0000 C   0  0  0  0  0  0  0  0  0  0  0  0
   21.2787   -7.6652    0.0000 C   0  0  0  0  0  0  0  0  0  0  0  0
   21.2787   -6.3352    0.0000 C   0  0  0  0  0  0  0  0  0  0  0  0
   22.4306   -8.3302    0.0000 C   0  0  0  0  0  0  0  0  0  0  0  0
   23.5824   -7.6652    0.0000 C   0  0  0  0  0  0  0  0  0  0  0  0
   23.5824   -6.3352    0.0000 C   0  0  0  0  0  0  0  0  0  0  0  0
   24.7342   -8.3302    0.0000 C   0  0  0  0  0  0  0  0  0  0  0  0
   25.8860   -7.6652    0.0000 C   0  0  0  0  0  0  0  0  0  0  0  0
   25.8860   -6.3352    0.0000 C   0  0  0  0  0  0  0  0  0  0  0  0
   27.0378   -8.3302    0.0000 C   0  0  0  0  0  0  0  0  0  0  0  0
   28.1896   -7.6652    0.0000 C   0  0  0  0  0  0  0  0  0  0  0  0
   28.1896   -6.3352    0.0000 C   0  0  0  0  0  0  0  0  0  0  0  0
   29.3414   -8.3302    0.0000 C   0  0  0  0  0  0  0  0  0  0  0  0
   30.4932   -7.6652    0.0000 C   0  0  0  0  0  0  0  0  0  0  0  0
   30.4932   -6.3352    0.0000 C   0  0  0  0  0  0  0  0  0  0  0  0
   31.6450   -8.3302    0.0000 C   0  0  0  0  0  0  0  0  0  0  0  0
  1  2  2  0  0  0  0
  2  3  1  0  0  0  0
  2  4  1  0  0  0  0
  3  5  1  0  0  0  0
  5  6  1  0  0  0  0
  5  7  1  0  0  0  0
  7  8  1  0  0  0  0
  8  9  1  0  0  0  0
  8 10  1  0  0  0  0
 10 11  1  0  0  0  0
 11 12  1  0  0  0  0
 11 13  1  0  0  0  0
 13 14  1  0  0  0  0
 14 15  1  0  0  0  0
 14 16  1  0  0  0  0
 16 17  1  0  0  0  0
 17 18  1  0  0  0  0
 17 19  1  0  0  0  0
 19 20  1  0  0  0  0
 20 21  1  0  0  0  0
 20 22  1  0  0  0  0
 22 23  1  0  0  0  0
 23 24  1  0  0  0  0
 23 25  1  0  0  0  0
 25 26  1  0  0  0  0
 26 27  1  0  0  0  0
 26 28  1  0  0  0  0
 28 29  1  0  0  0  0
 29 30  1  0  0  0  0
 29 31  1  0  0  0  0
 31 32  1  0  0  0  0
 32 33  1  0  0  0  0
 32 34  1  0  0  0  0
 34 35  1  0  0  0  0
 35 36  1  0  0  0  0
 35 37  1  0  0  0  0
 37 38  1  0  0  0  0
 38 39  1  0  0  0  0
 38 40  2  0  0  0  0
M  END
>  <NAME>
2,4,6,8,10,12,14,16,18,20,22,24,26-Tridecamethyl-1,26-heptacosadiene (isomer)

>  <INCHIKEY>
VOBSCDMTVYUDJY-UHFFFAOYSA-N

>  <POLYMER>
iso-PP (23)

>  <RETENTION INDEX>
SemiStdNP=3067.9

>  <FORMULA>
C40H78

>  <MW>
558

>  <EXACT MASS>
558.61035

>  <CASNO>
2911542544

>  <ID>
5

>  <COMMENT>
stereochemistry unknown

>  <NUM PEAKS>
53

>  <MASS SPECTRAL PEAKS>
29 18
39 8
41 92
42 13
43 199
44 6
53 3
55 256
56 55
57 406
58 13
65 6
67 29
68 21
69 999
70 123
71 323
72 18
81 31
82 107
83 575
84 109
85 193
86 10
95 64
96 63
97 227
98 20
99 72
109 173
110 65
111 270
112 30
113 44
123 120
124 53
125 314
126 40
127 26
137 39
138 22
139 55
141 14
151 34
152 11
153 66
155 8
165 32
166 9
167 9
179 4
193 9
207 4

$$$$
2,4,6,8,10,12,14,16,18,20,22,24-DODECAMETHYL-1,24-PENTACOSADIENE (ISOMER)
  ACD/LABS04092409313D
Library ID = 6
 37 36  0  0  0  0  0  0  0  0  1 V2000
    1.6978   -8.3303    0.0000 C   0  0  0  0  0  0  0  0  0  0  0  0
    2.8496   -7.6652    0.0000 C   0  0  0  0  0  0  0  0  0  0  0  0
    4.0015   -8.3303    0.0000 C   0  0  0  0  0  0  0  0  0  0  0  0
    2.8496   -6.3352    0.0000 C   0  0  0  0  0  0  0  0  0  0  0  0
    5.1533   -7.6652    0.0000 C   0  0  0  0  0  0  0  0  0  0  0  0
    5.1533   -6.3352    0.0000 C   0  0  0  0  0  0  0  0  0  0  0  0
    6.3051   -8.3303    0.0000 C   0  0  0  0  0  0  0  0  0  0  0  0
    7.4569   -7.6652    0.0000 C   0  0  0  0  0  0  0  0  0  0  0  0
    7.4569   -6.3352    0.0000 C   0  0  0  0  0  0  0  0  0  0  0  0
    8.6087   -8.3303    0.0000 C   0  0  0  0  0  0  0  0  0  0  0  0
    9.7605   -7.6652    0.0000 C   0  0  0  0  0  0  0  0  0  0  0  0
    9.7605   -6.3352    0.0000 C   0  0  0  0  0  0  0  0  0  0  0  0
   10.9123   -8.3303    0.0000 C   0  0  0  0  0  0  0  0  0  0  0  0
   12.0642   -7.6652    0.0000 C   0  0  0  0  0  0  0  0  0  0  0  0
   12.0642   -6.3352    0.0000 C   0  0  0  0  0  0  0  0  0  0  0  0
   13.2161   -8.3303    0.0000 C   0  0  0  0  0  0  0  0  0  0  0  0
   14.3679   -7.6652    0.0000 C   0  0  0  0  0  0  0  0  0  0  0  0
   14.3679   -6.3352    0.0000 C   0  0  0  0  0  0  0  0  0  0  0  0
   15.5197   -8.3303    0.0000 C   0  0  0  0  0  0  0  0  0  0  0  0
   16.6715   -7.6652    0.0000 C   0  0  0  0  0  0  0  0  0  0  0  0
   16.6715   -6.3352    0.0000 C   0  0  0  0  0  0  0  0  0  0  0  0
   17.8233   -8.3303    0.0000 C   0  0  0  0  0  0  0  0  0  0  0  0
   18.9751   -7.6652    0.0000 C   0  0  0  0  0  0  0  0  0  0  0  0
   18.9751   -6.3352    0.0000 C   0  0  0  0  0  0  0  0  0  0  0  0
   20.1269   -8.3302    0.0000 C   0  0  0  0  0  0  0  0  0  0  0  0
   21.2787   -7.6652    0.0000 C   0  0  0  0  0  0  0  0  0  0  0  0
   21.2787   -6.3352    0.0000 C   0  0  0  0  0  0  0  0  0  0  0  0
   22.4306   -8.3302    0.0000 C   0  0  0  0  0  0  0  0  0  0  0  0
   23.5824   -7.6652    0.0000 C   0  0  0  0  0  0  0  0  0  0  0  0
   23.5824   -6.3352    0.0000 C   0  0  0  0  0  0  0  0  0  0  0  0
   24.7342   -8.3302    0.0000 C   0  0  0  0  0  0  0  0  0  0  0  0
   25.8860   -7.6652    0.0000 C   0  0  0  0  0  0  0  0  0  0  0  0
   25.8860   -6.3352    0.0000 C   0  0  0  0  0  0  0  0  0  0  0  0
   27.0378   -8.3302    0.0000 C   0  0  0  0  0  0  0  0  0  0  0  0
   28.1896   -7.6652    0.0000 C   0  0  0  0  0  0  0  0  0  0  0  0
   28.1896   -6.3352    0.0000 C   0  0  0  0  0  0  0  0  0  0  0  0
   29.3414   -8.3302    0.0000 C   0  0  0  0  0  0  0  0  0  0  0  0
  1  2  2  0  0  0  0
  2  3  1  0  0  0  0
  2  4  1  0  0  0  0
  3  5  1  0  0  0  0
  5  6  1  0  0  0  0
  5  7  1  0  0  0  0
  7  8  1  0  0  0  0
  8  9  1  0  0  0  0
  8 10  1  0  0  0  0
 10 11  1  0  0  0  0
 11 12  1  0  0  0  0
 11 13  1  0  0  0  0
 13 14  1  0  0  0  0
 14 15  1  0  0  0  0
 14 16  1  0  0  0  0
 16 17  1  0  0  0  0
 17 18  1  0  0  0  0
 17 19  1  0  0  0  0
 19 20  1  0  0  0  0
 20 21  1  0  0  0  0
 20 22  1  0  0  0  0
 22 23  1  0  0  0  0
 23 24  1  0  0  0  0
 23 25  1  0  0  0  0
 25 26  1  0  0  0  0
 26 27  1  0  0  0  0
 26 28  1  0  0  0  0
 28 29  1  0  0  0  0
 29 30  1  0  0  0  0
 29 31  1  0  0  0  0
 31 32  1  0  0  0  0
 32 33  1  0  0  0  0
 32 34  1  0  0  0  0
 34 35  1  0  0  0  0
 35 36  1  0  0  0  0
 35 37  2  0  0  0  0
M  END
>  <NAME>
2,4,6,8,10,12,14,16,18,20,22,24-Dodecamethyl-1,24-pentacosadiene (isomer)

>  <INCHIKEY>
DQKZWEHUWWIMLC-UHFFFAOYSA-N

>  <POLYMER>
iso-PP (23)

>  <RETENTION INDEX>
SemiStdNP=2856.8

>  <FORMULA>
C37H72

>  <MW>
516

>  <EXACT MASS>
516.563404

>  <ID>
6

>  <COMMENT>
stereochemistry unknown

>  <NUM PEAKS>
58

>  <MASS SPECTRAL PEAKS>
25 8
29 17
30 4
39 11
41 100
42 14
43 199
44 6
53 4
55 277
56 49
57 364
58 16
59 4
67 33
68 20
69 999
70 112
71 298
72 13
76 1
81 31
82 112
83 557
84 105
85 171
86 13
93 1
94 3
95 66
96 60
97 219
98 23
99 62
103 1
109 181
110 66
111 249
112 30
113 35
123 121
124 54
125 277
126 42
127 18
137 39
138 17
139 48
141 9
151 37
152 11
153 59
155 3
165 31
166 6
167 10
193 11
207 4

$$$$
2,4,6,8,10,12,14,16,18,20,22-UNDECAMETHYL-1,22-TRICOSADIENE (ISOMER)
  ChemDraw04092409253D 
Library ID = 7
 34 33  0  0  0  0  0  0  0  0999 V2000 
  -14.5086   -1.1423    0.0000 C   0  0  0  0  0  0  0  0  0  0  0  0 
  -13.1896   -0.3808    0.0000 C   0  0  0  0  0  0  0  0  0  0  0  0 
  -11.8706   -1.1423    0.0000 C   0  0  0  0  0  0  0  0  0  0  0  0 
  -13.1896    1.1423    0.0000 C   0  0  0  0  0  0  0  0  0  0  0  0 
  -10.5516   -0.3808    0.0000 C   0  0  0  0  0  0  0  0  0  0  0  0 
  -10.5516    1.1423    0.0000 C   0  0  0  0  0  0  0  0  0  0  0  0 
   -9.2327   -1.1423    0.0000 C   0  0  0  0  0  0  0  0  0  0  0  0 
   -7.9137   -0.3808    0.0000 C   0  0  0  0  0  0  0  0  0  0  0  0 
   -7.9137    1.1423    0.0000 C   0  0  0  0  0  0  0  0  0  0  0  0 
   -6.5948   -1.1423    0.0000 C   0  0  0  0  0  0  0  0  0  0  0  0 
   -5.2758   -0.3808    0.0000 C   0  0  0  0  0  0  0  0  0  0  0  0 
   -5.2758    1.1423    0.0000 C   0  0  0  0  0  0  0  0  0  0  0  0 
   -3.9569   -1.1423    0.0000 C   0  0  0  0  0  0  0  0  0  0  0  0 
   -2.6379   -0.3808    0.0000 C   0  0  0  0  0  0  0  0  0  0  0  0 
   -2.6379    1.1423    0.0000 C   0  0  0  0  0  0  0  0  0  0  0  0 
   -1.3188   -1.1423    0.0000 C   0  0  0  0  0  0  0  0  0  0  0  0 
    0.0001   -0.3808    0.0000 C   0  0  0  0  0  0  0  0  0  0  0  0 
    0.0001    1.1423    0.0000 C   0  0  0  0  0  0  0  0  0  0  0  0 
    1.3191   -1.1423    0.0000 C   0  0  0  0  0  0  0  0  0  0  0  0 
    2.6380   -0.3808    0.0000 C   0  0  0  0  0  0  0  0  0  0  0  0 
    2.6380    1.1423    0.0000 C   0  0  0  0  0  0  0  0  0  0  0  0 
    3.9570   -1.1423    0.0000 C   0  0  0  0  0  0  0  0  0  0  0  0 
    5.2759   -0.3808    0.0000 C   0  0  0  0  0  0  0  0  0  0  0  0 
    5.2759    1.1423    0.0000 C   0  0  0  0  0  0  0  0  0  0  0  0 
    6.5949   -1.1423    0.0000 C   0  0  0  0  0  0  0  0  0  0  0  0 
    7.9138   -0.3808    0.0000 C   0  0  0  0  0  0  0  0  0  0  0  0 
    7.9138    1.1422    0.0000 C   0  0  0  0  0  0  0  0  0  0  0  0 
    9.2328   -1.1423    0.0000 C   0  0  0  0  0  0  0  0  0  0  0  0 
   10.5517   -0.3807    0.0000 C   0  0  0  0  0  0  0  0  0  0  0  0 
   10.5517    1.1423   -0.0000 C   0  0  0  0  0  0  0  0  0  0  0  0 
   11.8707   -1.1422    0.0000 C   0  0  0  0  0  0  0  0  0  0  0  0 
   13.1896   -0.3807   -0.0000 C   0  0  0  0  0  0  0  0  0  0  0  0 
   13.1896    1.1423   -0.0000 C   0  0  0  0  0  0  0  0  0  0  0  0 
   14.5086   -1.1422   -0.0000 C   0  0  0  0  0  0  0  0  0  0  0  0 
  1  2  2  0       
  2  3  1  0       
  2  4  1  0       
  3  5  1  0       
  5  6  1  0       
  5  7  1  0       
  7  8  1  0       
  8  9  1  0       
  8 10  1  0       
 10 11  1  0       
 11 12  1  0       
 11 13  1  0       
 13 14  1  0       
 14 15  1  0       
 14 16  1  0       
 16 17  1  0       
 17 18  1  0       
 17 19  1  0       
 19 20  1  0       
 20 21  1  0       
 20 22  1  0       
 22 23  1  0       
 23 24  1  0       
 23 25  1  0       
 25 26  1  0       
 26 27  1  0       
 26 28  1  0       
 28 29  1  0       
 29 30  1  0       
 29 31  1  0       
 31 32  1  0       
 32 33  1  0       
 32 34  2  0       
M  END
>  <NAME>
2,4,6,8,10,12,14,16,18,20,22-Undecamethyl-1,22-tricosadiene (isomer)

>  <INCHIKEY>
VXMMIQQCVQMHTK-UHFFFAOYSA-N

>  <POLYMER>
iso-PP (23)

>  <RETENTION INDEX>
SemiStdNP=2645.7

>  <FORMULA>
C34H66

>  <MW>
474

>  <EXACT MASS>
474.516453

>  <ID>
7

>  <COMMENT>
stereochemistry unknown

>  <NUM PEAKS>
52

>  <MASS SPECTRAL PEAKS>
27 4
29 22
39 13
40 4
41 117
42 18
43 210
44 3
53 6
55 309
56 51
57 353
58 13
60 5
67 36
68 22
69 999
70 114
71 271
72 13
81 33
82 114
83 567
84 104
85 155
86 11
95 67
96 58
97 211
98 23
99 53
109 186
110 69
111 235
112 29
113 26
123 126
124 52
125 257
126 35
127 16
137 36
138 16
139 41
147 5
151 40
152 7
153 52
165 27
166 5
167 7
193 10

$$$$
2,4,6,8,10,12,14,16,18,20-DECAMETHYL-1,20-HENICOSADIENE (ISOMER)
  ACD/LABS04082417233D
Library ID = 8
 31 30  0  0  0  0  0  0  0  0  1 V2000
    7.8417   -8.3661    0.0000 C   0  0  0  0  0  0  0  0  0  0  0  0
    8.9935   -7.7011    0.0000 C   0  0  0  0  0  0  0  0  0  0  0  0
   10.1454   -8.3661    0.0000 C   0  0  0  0  0  0  0  0  0  0  0  0
    8.9935   -6.3711    0.0000 C   0  0  0  0  0  0  0  0  0  0  0  0
   11.2972   -7.7011    0.0000 C   0  0  0  0  0  0  0  0  0  0  0  0
   11.2972   -6.3711    0.0000 C   0  0  0  0  0  0  0  0  0  0  0  0
   12.4491   -8.3661    0.0000 C   0  0  0  0  0  0  0  0  0  0  0  0
   13.6009   -7.7011    0.0000 C   0  0  0  0  0  0  0  0  0  0  0  0
   13.6009   -6.3711    0.0000 C   0  0  0  0  0  0  0  0  0  0  0  0
   14.7527   -8.3661    0.0000 C   0  0  0  0  0  0  0  0  0  0  0  0
   15.9045   -7.7011    0.0000 C   0  0  0  0  0  0  0  0  0  0  0  0
   15.9045   -6.3711    0.0000 C   0  0  0  0  0  0  0  0  0  0  0  0
   17.0563   -8.3661    0.0000 C   0  0  0  0  0  0  0  0  0  0  0  0
   18.2081   -7.7011    0.0000 C   0  0  0  0  0  0  0  0  0  0  0  0
   18.2081   -6.3711    0.0000 C   0  0  0  0  0  0  0  0  0  0  0  0
   19.3600   -8.3661    0.0000 C   0  0  0  0  0  0  0  0  0  0  0  0
   20.5118   -7.7011    0.0000 C   0  0  0  0  0  0  0  0  0  0  0  0
   20.5118   -6.3711    0.0000 C   0  0  0  0  0  0  0  0  0  0  0  0
   21.6636   -8.3661    0.0000 C   0  0  0  0  0  0  0  0  0  0  0  0
   22.8154   -7.7011    0.0000 C   0  0  0  0  0  0  0  0  0  0  0  0
   22.8154   -6.3711    0.0000 C   0  0  0  0  0  0  0  0  0  0  0  0
   23.9672   -8.3661    0.0000 C   0  0  0  0  0  0  0  0  0  0  0  0
   25.1191   -7.7011    0.0000 C   0  0  0  0  0  0  0  0  0  0  0  0
   25.1191   -6.3711    0.0000 C   0  0  0  0  0  0  0  0  0  0  0  0
   26.2709   -8.3661    0.0000 C   0  0  0  0  0  0  0  0  0  0  0  0
   27.4227   -7.7011    0.0000 C   0  0  0  0  0  0  0  0  0  0  0  0
   27.4227   -6.3711    0.0000 C   0  0  0  0  0  0  0  0  0  0  0  0
   28.5745   -8.3661    0.0000 C   0  0  0  0  0  0  0  0  0  0  0  0
   29.7263   -7.7011    0.0000 C   0  0  0  0  0  0  0  0  0  0  0  0
   29.7263   -6.3711    0.0000 C   0  0  0  0  0  0  0  0  0  0  0  0
   30.8781   -8.3661    0.0000 C   0  0  0  0  0  0  0  0  0  0  0  0
  1  2  2  0  0  0  0
  2  3  1  0  0  0  0
  2  4  1  0  0  0  0
  3  5  1  0  0  0  0
  5  6  1  0  0  0  0
  5  7  1  0  0  0  0
  7  8  1  0  0  0  0
  8  9  1  0  0  0  0
  8 10  1  0  0  0  0
 10 11  1  0  0  0  0
 11 12  1  0  0  0  0
 11 13  1  0  0  0  0
 13 14  1  0  0  0  0
 14 15  1  0  0  0  0
 14 16  1  0  0  0  0
 16 17  1  0  0  0  0
 17 18  1  0  0  0  0
 17 19  1  0  0  0  0
 19 20  1  0  0  0  0
 20 21  1  0  0  0  0
 20 22  1  0  0  0  0
 22 23  1  0  0  0  0
 23 24  1  0  0  0  0
 23 25  1  0  0  0  0
 25 26  1  0  0  0  0
 26 27  1  0  0  0  0
 26 28  1  0  0  0  0
 28 29  1  0  0  0  0
 29 30  1  0  0  0  0
 29 31  2  0  0  0  0
M  END
>  <NAME>
2,4,6,8,10,12,14,16,18,20-Decamethyl-1,20-henicosadiene (isomer)

>  <INCHIKEY>
YOBVENAFIXZXRB-UHFFFAOYSA-N

>  <POLYMER>
iso-PP (23)

>  <RETENTION INDEX>
SemiStdNP=2434.3

>  <FORMULA>
C31H60

>  <MW>
432

>  <EXACT MASS>
432.469501

>  <ID>
8

>  <COMMENT>
stereochemistry unknown

>  <NUM PEAKS>
53

>  <MASS SPECTRAL PEAKS>
27 7
29 28
39 19
41 134
42 19
43 211
53 13
55 340
56 53
57 335
58 12
63 5
67 42
68 25
69 999
70 103
71 245
72 13
76 6
81 32
82 128
83 563
84 95
85 132
93 6
94 3
95 73
96 61
97 202
98 18
99 37
109 205
110 73
111 217
112 20
113 18
122 3
123 134
124 48
125 229
126 28
127 5
137 40
138 16
139 29
141 4
151 38
152 6
153 37
165 23
166 7
167 5
184 3

$$$$
2,4,6,8,10,12,14,16,18-NONAMETHYL-1,18-NONADECADIENE (ISOMER)
  ACD/LABS04082417063D
CAS rn = 2911542533, Library ID = 9
 28 27  0  0  0  0  0  0  0  0  1 V2000
    7.8417   -8.3661    0.0000 C   0  0  0  0  0  0  0  0  0  0  0  0
    8.9935   -7.7011    0.0000 C   0  0  0  0  0  0  0  0  0  0  0  0
   10.1454   -8.3661    0.0000 C   0  0  0  0  0  0  0  0  0  0  0  0
    8.9935   -6.3711    0.0000 C   0  0  0  0  0  0  0  0  0  0  0  0
   11.2972   -7.7011    0.0000 C   0  0  0  0  0  0  0  0  0  0  0  0
   11.2972   -6.3711    0.0000 C   0  0  0  0  0  0  0  0  0  0  0  0
   12.4491   -8.3661    0.0000 C   0  0  0  0  0  0  0  0  0  0  0  0
   13.6009   -7.7011    0.0000 C   0  0  0  0  0  0  0  0  0  0  0  0
   13.6009   -6.3711    0.0000 C   0  0  0  0  0  0  0  0  0  0  0  0
   14.7527   -8.3661    0.0000 C   0  0  0  0  0  0  0  0  0  0  0  0
   15.9045   -7.7011    0.0000 C   0  0  0  0  0  0  0  0  0  0  0  0
   15.9045   -6.3711    0.0000 C   0  0  0  0  0  0  0  0  0  0  0  0
   17.0563   -8.3661    0.0000 C   0  0  0  0  0  0  0  0  0  0  0  0
   18.2081   -7.7011    0.0000 C   0  0  0  0  0  0  0  0  0  0  0  0
   18.2081   -6.3711    0.0000 C   0  0  0  0  0  0  0  0  0  0  0  0
   19.3600   -8.3661    0.0000 C   0  0  0  0  0  0  0  0  0  0  0  0
   20.5118   -7.7011    0.0000 C   0  0  0  0  0  0  0  0  0  0  0  0
   20.5118   -6.3711    0.0000 C   0  0  0  0  0  0  0  0  0  0  0  0
   21.6636   -8.3661    0.0000 C   0  0  0  0  0  0  0  0  0  0  0  0
   22.8154   -7.7011    0.0000 C   0  0  0  0  0  0  0  0  0  0  0  0
   22.8154   -6.3711    0.0000 C   0  0  0  0  0  0  0  0  0  0  0  0
   23.9672   -8.3661    0.0000 C   0  0  0  0  0  0  0  0  0  0  0  0
   25.1191   -7.7011    0.0000 C   0  0  0  0  0  0  0  0  0  0  0  0
   25.1191   -6.3711    0.0000 C   0  0  0  0  0  0  0  0  0  0  0  0
   26.2709   -8.3661    0.0000 C   0  0  0  0  0  0  0  0  0  0  0  0
   27.4227   -7.7011    0.0000 C   0  0  0  0  0  0  0  0  0  0  0  0
   27.4227   -6.3711    0.0000 C   0  0  0  0  0  0  0  0  0  0  0  0
   28.5745   -8.3661    0.0000 C   0  0  0  0  0  0  0  0  0  0  0  0
  1  2  2  0  0  0  0
  2  3  1  0  0  0  0
  2  4  1  0  0  0  0
  3  5  1  0  0  0  0
  5  6  1  0  0  0  0
  5  7  1  0  0  0  0
  7  8  1  0  0  0  0
  8  9  1  0  0  0  0
  8 10  1  0  0  0  0
 10 11  1  0  0  0  0
 11 12  1  0  0  0  0
 11 13  1  0  0  0  0
 13 14  1  0  0  0  0
 14 15  1  0  0  0  0
 14 16  1  0  0  0  0
 16 17  1  0  0  0  0
 17 18  1  0  0  0  0
 17 19  1  0  0  0  0
 19 20  1  0  0  0  0
 20 21  1  0  0  0  0
 20 22  1  0  0  0  0
 22 23  1  0  0  0  0
 23 24  1  0  0  0  0
 23 25  1  0  0  0  0
 25 26  1  0  0  0  0
 26 27  1  0  0  0  0
 26 28  2  0  0  0  0
M  END
>  <NAME>
2,4,6,8,10,12,14,16,18-Nonamethyl-1,18-nonadecadiene (isomer)

>  <INCHIKEY>
QTEONXGYGRYAPQ-UHFFFAOYSA-N

>  <POLYMER>
iso-PP (23)

>  <RETENTION INDEX>
SemiStdNP=2222.7

>  <FORMULA>
C28H54

>  <MW>
390

>  <EXACT MASS>
390.422552

>  <CASNO>
2911542533

>  <ID>
9

>  <COMMENT>
stereochemistry unknown

>  <NUM PEAKS>
51

>  <MASS SPECTRAL PEAKS>
27 5
29 37
39 15
41 156
42 19
43 219
47 3
53 13
54 5
55 369
56 59
57 321
58 16
67 44
68 24
69 999
70 103
71 237
72 10
79 6
81 37
82 136
83 559
84 95
85 126
86 4
95 76
96 61
97 189
98 15
99 35
109 201
110 73
111 208
112 22
113 13
123 133
124 46
125 196
126 28
127 9
137 37
138 14
139 26
151 37
152 7
153 25
165 25
166 5
193 6
259 4

$$$$
2,4,6,8,10,12,14,16-OCTAMETHYL-1,16-HEPTADECADIENE (ISOMER)
  ChemDraw04082416192D 
CAS rn = 926651094, Library ID = 10
 25 24  0  0  0  0  0  0  0  0999 V2000 
   -5.7158   -0.6188    0.0000 C   0  0  0  0  0  0  0  0  0  0  0  0 
   -5.0013   -0.2063    0.0000 C   0  0  0  0  0  0  0  0  0  0  0  0 
   -4.2868   -0.6188    0.0000 C   0  0  0  0  0  0  0  0  0  0  0  0 
   -5.0013    0.6188    0.0000 C   0  0  0  0  0  0  0  0  0  0  0  0 
   -3.5723   -0.2063    0.0000 C   0  0  0  0  0  0  0  0  0  0  0  0 
   -3.5723    0.6188    0.0000 C   0  0  0  0  0  0  0  0  0  0  0  0 
   -2.8579   -0.6188    0.0000 C   0  0  0  0  0  0  0  0  0  0  0  0 
   -2.1434   -0.2063    0.0000 C   0  0  0  0  0  0  0  0  0  0  0  0 
   -2.1434    0.6188    0.0000 C   0  0  0  0  0  0  0  0  0  0  0  0 
   -1.4289   -0.6188    0.0000 C   0  0  0  0  0  0  0  0  0  0  0  0 
   -0.7145   -0.2063    0.0000 C   0  0  0  0  0  0  0  0  0  0  0  0 
   -0.7145    0.6188    0.0000 C   0  0  0  0  0  0  0  0  0  0  0  0 
   -0.0000   -0.6188    0.0000 C   0  0  0  0  0  0  0  0  0  0  0  0 
    0.7145   -0.2063    0.0000 C   0  0  0  0  0  0  0  0  0  0  0  0 
    0.7145    0.6188    0.0000 C   0  0  0  0  0  0  0  0  0  0  0  0 
    1.4290   -0.6188    0.0000 C   0  0  0  0  0  0  0  0  0  0  0  0 
    2.1435   -0.2063    0.0000 C   0  0  0  0  0  0  0  0  0  0  0  0 
    2.1435    0.6188    0.0000 C   0  0  0  0  0  0  0  0  0  0  0  0 
    2.8579   -0.6188    0.0000 C   0  0  0  0  0  0  0  0  0  0  0  0 
    3.5724   -0.2063    0.0000 C   0  0  0  0  0  0  0  0  0  0  0  0 
    3.5724    0.6188    0.0000 C   0  0  0  0  0  0  0  0  0  0  0  0 
    4.2869   -0.6188    0.0000 C   0  0  0  0  0  0  0  0  0  0  0  0 
    5.0013   -0.2063    0.0000 C   0  0  0  0  0  0  0  0  0  0  0  0 
    5.0013    0.6188    0.0000 C   0  0  0  0  0  0  0  0  0  0  0  0 
    5.7158   -0.6188    0.0000 C   0  0  0  0  0  0  0  0  0  0  0  0 
  1  2  2  0       
  2  3  1  0       
  2  4  1  0       
  3  5  1  0       
  5  6  1  0       
  5  7  1  0       
  7  8  1  0       
  8  9  1  0       
  8 10  1  0       
 10 11  1  0       
 11 12  1  0       
 11 13  1  0       
 13 14  1  0       
 14 15  1  0       
 14 16  1  0       
 16 17  1  0       
 17 18  1  0       
 17 19  1  0       
 19 20  1  0       
 20 21  1  0       
 20 22  1  0       
 22 23  1  0       
 23 24  1  0       
 23 25  2  0       
M  END
>  <NAME>
2,4,6,8,10,12,14,16-Octamethyl-1,16-heptadecadiene (isomer)

>  <INCHIKEY>
XVXIZOUSLNITMZ-UHFFFAOYSA-N

>  <POLYMER>
iso-PP (23)

>  <RETENTION INDEX>
SemiStdNP=2010.6

>  <FORMULA>
C25H48

>  <MW>
348

>  <EXACT MASS>
348.3756

>  <CASNO>
926651094

>  <ID>
10

>  <COMMENT>
stereochemistry unknown

>  <NUM PEAKS>
44

>  <MASS SPECTRAL PEAKS>
27 15
29 45
39 19
41 177
42 21
43 201
45 6
53 11
55 407
56 56
57 264
58 12
67 45
68 27
69 999
70 87
71 176
72 7
81 39
82 147
83 559
84 86
85 97
95 82
96 65
97 172
98 15
99 14
109 224
110 63
111 163
112 17
113 8
123 143
124 46
125 157
126 18
137 39
138 21
139 12
151 37
152 7
153 16
165 23

$$$$
2,4,6,8,10,12,14-HEPTAMETHYL-1,14-PENTADECADIENE (ISOMER)
  ACD/LABS04082412003D
CAS rn = 926651038, Library ID = 11
 22 21  0  0  0  0  0  0  0  0  1 V2000
    8.5759   -7.6236    0.0000 C   0  0  0  0  0  0  0  0  0  0  0  0
    9.7277   -6.9586    0.0000 C   0  0  0  0  0  0  0  0  0  0  0  0
   10.8796   -7.6236    0.0000 C   0  0  0  0  0  0  0  0  0  0  0  0
    9.7277   -5.6286    0.0000 C   0  0  0  0  0  0  0  0  0  0  0  0
   12.0314   -6.9586    0.0000 C   0  0  0  0  0  0  0  0  0  0  0  0
   12.0314   -5.6286    0.0000 C   0  0  0  0  0  0  0  0  0  0  0  0
   13.1832   -7.6236    0.0000 C   0  0  0  0  0  0  0  0  0  0  0  0
   14.3350   -6.9586    0.0000 C   0  0  0  0  0  0  0  0  0  0  0  0
   14.3350   -5.6286    0.0000 C   0  0  0  0  0  0  0  0  0  0  0  0
   15.4868   -7.6236    0.0000 C   0  0  0  0  0  0  0  0  0  0  0  0
   16.6386   -6.9586    0.0000 C   0  0  0  0  0  0  0  0  0  0  0  0
   16.6386   -5.6286    0.0000 C   0  0  0  0  0  0  0  0  0  0  0  0
   17.7904   -7.6236    0.0000 C   0  0  0  0  0  0  0  0  0  0  0  0
   18.9422   -6.9586    0.0000 C   0  0  0  0  0  0  0  0  0  0  0  0
   18.9422   -5.6286    0.0000 C   0  0  0  0  0  0  0  0  0  0  0  0
   20.0941   -7.6236    0.0000 C   0  0  0  0  0  0  0  0  0  0  0  0
   21.2459   -6.9586    0.0000 C   0  0  0  0  0  0  0  0  0  0  0  0
   21.2459   -5.6286    0.0000 C   0  0  0  0  0  0  0  0  0  0  0  0
   22.3977   -7.6236    0.0000 C   0  0  0  0  0  0  0  0  0  0  0  0
   23.5495   -6.9586    0.0000 C   0  0  0  0  0  0  0  0  0  0  0  0
   23.5495   -5.6286    0.0000 C   0  0  0  0  0  0  0  0  0  0  0  0
   24.7013   -7.6236    0.0000 C   0  0  0  0  0  0  0  0  0  0  0  0
  1  2  2  0  0  0  0
  2  3  1  0  0  0  0
  2  4  1  0  0  0  0
  3  5  1  0  0  0  0
  5  6  1  0  0  0  0
  5  7  1  0  0  0  0
  7  8  1  0  0  0  0
  8  9  1  0  0  0  0
  8 10  1  0  0  0  0
 10 11  1  0  0  0  0
 11 12  1  0  0  0  0
 11 13  1  0  0  0  0
 13 14  1  0  0  0  0
 14 15  1  0  0  0  0
 14 16  1  0  0  0  0
 16 17  1  0  0  0  0
 17 18  1  0  0  0  0
 17 19  1  0  0  0  0
 19 20  1  0  0  0  0
 20 21  1  0  0  0  0
 20 22  2  0  0  0  0
M  END
>  <NAME>
2,4,6,8,10,12,14-Heptamethyl-1,14-pentadecadiene (isomer)

>  <INCHIKEY>
RAOHICWAYMIARC-UHFFFAOYSA-N

>  <POLYMER>
iso-PP (23)

>  <RETENTION INDEX>
SemiStdNP=1798.2

>  <FORMULA>
C22H42

>  <MW>
306

>  <EXACT MASS>
306.328651

>  <CASNO>
926651038

>  <ID>
11

>  <COMMENT>
stereochemistry unknown

>  <NUM PEAKS>
40

>  <MASS SPECTRAL PEAKS>
27 17
29 53
39 31
41 211
42 24
43 185
53 21
55 460
56 57
57 227
65 8
67 55
68 21
69 999
70 86
71 147
79 11
81 51
82 182
83 573
84 78
85 62
95 111
96 70
97 153
98 9
107 7
109 269
110 78
111 143
112 5
113 8
123 165
124 45
125 120
126 6
137 41
138 8
151 34
165 22

$$$$
2,4,6,8,10,12-HEXAMETHYL-1-PENTADECENE (ISOMER 2)
  ACD/LABS04082411503D
CAS rn = 2911542511, Library ID = 12
 21 20  0  0  0  0  0  0  0  0  1 V2000
    8.5759   -7.6236    0.0000 C   0  0  0  0  0  0  0  0  0  0  0  0
    9.7277   -6.9586    0.0000 C   0  0  0  0  0  0  0  0  0  0  0  0
   10.8796   -7.6236    0.0000 C   0  0  0  0  0  0  0  0  0  0  0  0
    9.7277   -5.6286    0.0000 C   0  0  0  0  0  0  0  0  0  0  0  0
   12.0314   -6.9586    0.0000 C   0  0  0  0  0  0  0  0  0  0  0  0
   12.0314   -5.6286    0.0000 C   0  0  0  0  0  0  0  0  0  0  0  0
   13.1832   -7.6236    0.0000 C   0  0  0  0  0  0  0  0  0  0  0  0
   14.3350   -6.9586    0.0000 C   0  0  0  0  0  0  0  0  0  0  0  0
   14.3350   -5.6286    0.0000 C   0  0  0  0  0  0  0  0  0  0  0  0
   15.4868   -7.6236    0.0000 C   0  0  0  0  0  0  0  0  0  0  0  0
   16.6386   -6.9586    0.0000 C   0  0  0  0  0  0  0  0  0  0  0  0
   16.6386   -5.6286    0.0000 C   0  0  0  0  0  0  0  0  0  0  0  0
   17.7904   -7.6236    0.0000 C   0  0  0  0  0  0  0  0  0  0  0  0
   18.9422   -6.9586    0.0000 C   0  0  0  0  0  0  0  0  0  0  0  0
   18.9422   -5.6286    0.0000 C   0  0  0  0  0  0  0  0  0  0  0  0
   20.0941   -7.6236    0.0000 C   0  0  0  0  0  0  0  0  0  0  0  0
   21.2459   -6.9586    0.0000 C   0  0  0  0  0  0  0  0  0  0  0  0
   21.2459   -5.6286    0.0000 C   0  0  0  0  0  0  0  0  0  0  0  0
   22.3977   -7.6236    0.0000 C   0  0  0  0  0  0  0  0  0  0  0  0
   23.5495   -6.9586    0.0000 C   0  0  0  0  0  0  0  0  0  0  0  0
   23.5495   -5.6286    0.0000 C   0  0  0  0  0  0  0  0  0  0  0  0
  1  2  2  0  0  0  0
  2  3  1  0  0  0  0
  2  4  1  0  0  0  0
  3  5  1  0  0  0  0
  5  6  1  0  0  0  0
  5  7  1  0  0  0  0
  7  8  1  0  0  0  0
  8  9  1  0  0  0  0
  8 10  1  0  0  0  0
 10 11  1  0  0  0  0
 11 12  1  0  0  0  0
 11 13  1  0  0  0  0
 13 14  1  0  0  0  0
 14 15  1  0  0  0  0
 14 16  1  0  0  0  0
 16 17  1  0  0  0  0
 17 18  1  0  0  0  0
 17 19  1  0  0  0  0
 19 20  1  0  0  0  0
 20 21  1  0  0  0  0
M  END
>  <NAME>
2,4,6,8,10,12-Hexamethyl-1-pentadecene (isomer 2)

>  <INCHIKEY>
BAGMQIWLSCXTAI-UHFFFAOYSA-N

>  <POLYMER>
iso-PP (23)

>  <RETENTION INDEX>
SemiStdNP=1756.2

>  <FORMULA>
C21H42

>  <MW>
294

>  <EXACT MASS>
294.328651

>  <CASNO>
2911542511

>  <ID>
12

>  <COMMENT>
stereochemistry unknown

>  <NUM PEAKS>
40

>  <MASS SPECTRAL PEAKS>
21 12
27 24
29 79
39 33
41 263
42 43
43 606
44 12
53 12
55 395
56 90
57 741
58 34
67 46
68 38
69 999
70 226
71 652
72 37
81 16
82 45
83 482
84 226
85 423
86 27
95 30
97 185
98 26
99 97
109 16
110 32
111 368
112 130
113 41
125 170
126 31
127 14
139 18
153 86
154 33

$$$$
2,4,6,8,10,12-HEXAMETHYL-1-PENTADECENE (ISOMER 1)
  ACD/LABS04082411503D
CAS rn = 2911542511, Library ID = 13
 21 20  0  0  0  0  0  0  0  0  1 V2000
    8.5759   -7.6236    0.0000 C   0  0  0  0  0  0  0  0  0  0  0  0
    9.7277   -6.9586    0.0000 C   0  0  0  0  0  0  0  0  0  0  0  0
   10.8796   -7.6236    0.0000 C   0  0  0  0  0  0  0  0  0  0  0  0
    9.7277   -5.6286    0.0000 C   0  0  0  0  0  0  0  0  0  0  0  0
   12.0314   -6.9586    0.0000 C   0  0  0  0  0  0  0  0  0  0  0  0
   12.0314   -5.6286    0.0000 C   0  0  0  0  0  0  0  0  0  0  0  0
   13.1832   -7.6236    0.0000 C   0  0  0  0  0  0  0  0  0  0  0  0
   14.3350   -6.9586    0.0000 C   0  0  0  0  0  0  0  0  0  0  0  0
   14.3350   -5.6286    0.0000 C   0  0  0  0  0  0  0  0  0  0  0  0
   15.4868   -7.6236    0.0000 C   0  0  0  0  0  0  0  0  0  0  0  0
   16.6386   -6.9586    0.0000 C   0  0  0  0  0  0  0  0  0  0  0  0
   16.6386   -5.6286    0.0000 C   0  0  0  0  0  0  0  0  0  0  0  0
   17.7904   -7.6236    0.0000 C   0  0  0  0  0  0  0  0  0  0  0  0
   18.9422   -6.9586    0.0000 C   0  0  0  0  0  0  0  0  0  0  0  0
   18.9422   -5.6286    0.0000 C   0  0  0  0  0  0  0  0  0  0  0  0
   20.0941   -7.6236    0.0000 C   0  0  0  0  0  0  0  0  0  0  0  0
   21.2459   -6.9586    0.0000 C   0  0  0  0  0  0  0  0  0  0  0  0
   21.2459   -5.6286    0.0000 C   0  0  0  0  0  0  0  0  0  0  0  0
   22.3977   -7.6236    0.0000 C   0  0  0  0  0  0  0  0  0  0  0  0
   23.5495   -6.9586    0.0000 C   0  0  0  0  0  0  0  0  0  0  0  0
   23.5495   -5.6286    0.0000 C   0  0  0  0  0  0  0  0  0  0  0  0
  1  2  2  0  0  0  0
  2  3  1  0  0  0  0
  2  4  1  0  0  0  0
  3  5  1  0  0  0  0
  5  6  1  0  0  0  0
  5  7  1  0  0  0  0
  7  8  1  0  0  0  0
  8  9  1  0  0  0  0
  8 10  1  0  0  0  0
 10 11  1  0  0  0  0
 11 12  1  0  0  0  0
 11 13  1  0  0  0  0
 13 14  1  0  0  0  0
 14 15  1  0  0  0  0
 14 16  1  0  0  0  0
 16 17  1  0  0  0  0
 17 18  1  0  0  0  0
 17 19  1  0  0  0  0
 19 20  1  0  0  0  0
 20 21  1  0  0  0  0
M  END
>  <NAME>
2,4,6,8,10,12-Hexamethyl-1-pentadecene (isomer 1)

>  <INCHIKEY>
BAGMQIWLSCXTAI-UHFFFAOYSA-N

>  <POLYMER>
iso-PP (23)

>  <RETENTION INDEX>
SemiStdNP=1726.9

>  <FORMULA>
C21H42

>  <MW>
294

>  <EXACT MASS>
294.328651

>  <CASNO>
2911542511

>  <ID>
13

>  <COMMENT>
stereochemistry unknown

>  <NUM PEAKS>
44

>  <MASS SPECTRAL PEAKS>
27 24
29 87
30 5
39 32
40 12
41 266
42 44
43 590
44 12
53 21
55 386
56 96
57 743
58 27
67 43
68 42
69 999
70 227
71 648
72 36
81 16
82 60
83 477
84 211
85 401
86 35
95 25
96 5
97 185
98 19
99 90
109 34
110 32
111 351
112 117
113 33
123 12
125 175
126 34
127 25
139 26
144 9
153 88
154 31

$$$$
2,4,6,8,10,12-HEXAMETHYL-1,12-TRIDECADIENE (ISOMER)
  ACD/LABS04082411383D
CAS rn = 926650853, Library ID = 14
 19 18  0  0  0  0  0  0  0  0  1 V2000
    8.5759   -7.6236    0.0000 C   0  0  0  0  0  0  0  0  0  0  0  0
    9.7277   -6.9586    0.0000 C   0  0  0  0  0  0  0  0  0  0  0  0
   10.8796   -7.6236    0.0000 C   0  0  0  0  0  0  0  0  0  0  0  0
    9.7277   -5.6286    0.0000 C   0  0  0  0  0  0  0  0  0  0  0  0
   12.0314   -6.9586    0.0000 C   0  0  0  0  0  0  0  0  0  0  0  0
   12.0314   -5.6286    0.0000 C   0  0  0  0  0  0  0  0  0  0  0  0
   13.1832   -7.6236    0.0000 C   0  0  0  0  0  0  0  0  0  0  0  0
   14.3350   -6.9586    0.0000 C   0  0  0  0  0  0  0  0  0  0  0  0
   14.3350   -5.6286    0.0000 C   0  0  0  0  0  0  0  0  0  0  0  0
   15.4868   -7.6236    0.0000 C   0  0  0  0  0  0  0  0  0  0  0  0
   16.6386   -6.9586    0.0000 C   0  0  0  0  0  0  0  0  0  0  0  0
   16.6386   -5.6286    0.0000 C   0  0  0  0  0  0  0  0  0  0  0  0
   17.7904   -7.6236    0.0000 C   0  0  0  0  0  0  0  0  0  0  0  0
   18.9422   -6.9586    0.0000 C   0  0  0  0  0  0  0  0  0  0  0  0
   18.9422   -5.6286    0.0000 C   0  0  0  0  0  0  0  0  0  0  0  0
   20.0941   -7.6236    0.0000 C   0  0  0  0  0  0  0  0  0  0  0  0
   21.2459   -6.9586    0.0000 C   0  0  0  0  0  0  0  0  0  0  0  0
   21.2459   -5.6286    0.0000 C   0  0  0  0  0  0  0  0  0  0  0  0
   22.3977   -7.6236    0.0000 C   0  0  0  0  0  0  0  0  0  0  0  0
  1  2  2  0  0  0  0
  2  3  1  0  0  0  0
  2  4  1  0  0  0  0
  3  5  1  0  0  0  0
  5  6  1  0  0  0  0
  5  7  1  0  0  0  0
  7  8  1  0  0  0  0
  8  9  1  0  0  0  0
  8 10  1  0  0  0  0
 10 11  1  0  0  0  0
 11 12  1  0  0  0  0
 11 13  1  0  0  0  0
 13 14  1  0  0  0  0
 14 15  1  0  0  0  0
 14 16  1  0  0  0  0
 16 17  1  0  0  0  0
 17 18  1  0  0  0  0
 17 19  2  0  0  0  0
M  END
>  <NAME>
2,4,6,8,10,12-Hexamethyl-1,12-tridecadiene (isomer)

>  <INCHIKEY>
AEWAVWPWBCLUIU-UHFFFAOYSA-N

>  <POLYMER>
iso-PP (23)

>  <RETENTION INDEX>
SemiStdNP=1585.2

>  <FORMULA>
C19H36

>  <MW>
264

>  <EXACT MASS>
264.281702

>  <CASNO>
926650853

>  <ID>
14

>  <COMMENT>
stereochemistry unknown

>  <NUM PEAKS>
37

>  <MASS SPECTRAL PEAKS>
27 21
29 81
39 51
41 269
42 25
43 208
44 7
53 28
55 545
56 60
57 206
67 69
68 35
69 999
70 74
71 110
81 59
82 219
83 596
84 78
85 44
95 119
96 98
97 133
109 305
110 62
111 84
123 215
124 52
125 95
126 9
137 46
138 7
151 28
159 6
165 22
214 5

$$$$
2,4,6,8,10-PENTAMETHYL-1-TRIDECENE (ISOMER)
  ACD/LABS04082410443D
CAS rn = 926650795, Library ID = 15
 18 17  0  0  0  0  0  0  0  0  1 V2000
    8.5759   -7.6236    0.0000 C   0  0  0  0  0  0  0  0  0  0  0  0
    9.7277   -6.9586    0.0000 C   0  0  0  0  0  0  0  0  0  0  0  0
   10.8796   -7.6236    0.0000 C   0  0  0  0  0  0  0  0  0  0  0  0
    9.7277   -5.6286    0.0000 C   0  0  0  0  0  0  0  0  0  0  0  0
   12.0314   -6.9586    0.0000 C   0  0  0  0  0  0  0  0  0  0  0  0
   12.0314   -5.6286    0.0000 C   0  0  0  0  0  0  0  0  0  0  0  0
   13.1832   -7.6236    0.0000 C   0  0  0  0  0  0  0  0  0  0  0  0
   14.3350   -6.9586    0.0000 C   0  0  0  0  0  0  0  0  0  0  0  0
   14.3350   -5.6286    0.0000 C   0  0  0  0  0  0  0  0  0  0  0  0
   15.4868   -7.6236    0.0000 C   0  0  0  0  0  0  0  0  0  0  0  0
   16.6386   -6.9586    0.0000 C   0  0  0  0  0  0  0  0  0  0  0  0
   16.6386   -5.6286    0.0000 C   0  0  0  0  0  0  0  0  0  0  0  0
   17.7904   -7.6236    0.0000 C   0  0  0  0  0  0  0  0  0  0  0  0
   18.9422   -6.9586    0.0000 C   0  0  0  0  0  0  0  0  0  0  0  0
   18.9422   -5.6286    0.0000 C   0  0  0  0  0  0  0  0  0  0  0  0
   20.0941   -7.6236    0.0000 C   0  0  0  0  0  0  0  0  0  0  0  0
   21.2459   -6.9586    0.0000 C   0  0  0  0  0  0  0  0  0  0  0  0
   21.2459   -5.6286    0.0000 C   0  0  0  0  0  0  0  0  0  0  0  0
  1  2  2  0  0  0  0
  2  3  1  0  0  0  0
  2  4  1  0  0  0  0
  3  5  1  0  0  0  0
  5  6  1  0  0  0  0
  5  7  1  0  0  0  0
  7  8  1  0  0  0  0
  8  9  1  0  0  0  0
  8 10  1  0  0  0  0
 10 11  1  0  0  0  0
 11 12  1  0  0  0  0
 11 13  1  0  0  0  0
 13 14  1  0  0  0  0
 14 15  1  0  0  0  0
 14 16  1  0  0  0  0
 16 17  1  0  0  0  0
 17 18  1  0  0  0  0
M  END
>  <NAME>
2,4,6,8,10-Pentamethyl-1-tridecene (isomer)

>  <INCHIKEY>
ZTCIQBPVONMRJS-UHFFFAOYSA-N

>  <POLYMER>
iso-PP (23)

>  <RETENTION INDEX>
SemiStdNP=1514.8

>  <FORMULA>
C18H36

>  <MW>
252

>  <EXACT MASS>
252.281701

>  <CASNO>
926650795

>  <ID>
15

>  <COMMENT>
stereochemistry unknown

>  <NUM PEAKS>
42

>  <MASS SPECTRAL PEAKS>
20 10
27 38
29 123
39 51
41 345
42 57
43 723
44 23
53 31
54 7
55 416
56 114
57 854
58 31
67 55
68 64
69 999
70 304
71 736
72 41
81 27
82 44
83 485
84 206
85 323
86 17
95 25
97 168
98 18
99 54
109 14
110 26
111 373
112 134
113 23
125 141
126 47
127 46
139 12
142 5
153 59
154 12

$$$$
2,4,6,8-TETRAMETHYL-1-UNDECENE (ISOMER 3)
  ACD/LABS04052417143D
CAS rn = 59920262, Library ID = 16
 15 14  0  0  0  0  0  0  0  0  1 V2000
    8.5759   -7.6236    0.0000 C   0  0  0  0  0  0  0  0  0  0  0  0
    9.7277   -6.9586    0.0000 C   0  0  0  0  0  0  0  0  0  0  0  0
   10.8796   -7.6236    0.0000 C   0  0  0  0  0  0  0  0  0  0  0  0
    9.7277   -5.6286    0.0000 C   0  0  0  0  0  0  0  0  0  0  0  0
   12.0314   -6.9586    0.0000 C   0  0  0  0  0  0  0  0  0  0  0  0
   12.0314   -5.6286    0.0000 C   0  0  0  0  0  0  0  0  0  0  0  0
   13.1832   -7.6236    0.0000 C   0  0  0  0  0  0  0  0  0  0  0  0
   14.3350   -6.9586    0.0000 C   0  0  0  0  0  0  0  0  0  0  0  0
   14.3350   -5.6286    0.0000 C   0  0  0  0  0  0  0  0  0  0  0  0
   15.4868   -7.6236    0.0000 C   0  0  0  0  0  0  0  0  0  0  0  0
   16.6386   -6.9586    0.0000 C   0  0  0  0  0  0  0  0  0  0  0  0
   16.6386   -5.6286    0.0000 C   0  0  0  0  0  0  0  0  0  0  0  0
   17.7904   -7.6236    0.0000 C   0  0  0  0  0  0  0  0  0  0  0  0
   18.9422   -6.9586    0.0000 C   0  0  0  0  0  0  0  0  0  0  0  0
   18.9422   -5.6286    0.0000 C   0  0  0  0  0  0  0  0  0  0  0  0
  1  2  2  0  0  0  0
  2  3  1  0  0  0  0
  2  4  1  0  0  0  0
  3  5  1  0  0  0  0
  5  6  1  0  0  0  0
  5  7  1  0  0  0  0
  7  8  1  0  0  0  0
  8  9  1  0  0  0  0
  8 10  1  0  0  0  0
 10 11  1  0  0  0  0
 11 12  1  0  0  0  0
 11 13  1  0  0  0  0
 13 14  1  0  0  0  0
 14 15  1  0  0  0  0
M  END
>  <NAME>
2,4,6,8-Tetramethyl-1-undecene (isomer 3)

>  <INCHIKEY>
LBMKCDUBYFXSNQ-UHFFFAOYSA-N

>  <POLYMER>
iso-PP (23)

>  <RETENTION INDEX>
SemiStdNP=1316.6

>  <FORMULA>
C15H30

>  <MW>
210

>  <EXACT MASS>
210.234751

>  <CASNO>
59920262

>  <ID>
16

>  <COMMENT>
stereochemistry unknown

>  <NUM PEAKS>
44

>  <MASS SPECTRAL PEAKS>
27 65
29 143
39 83
40 18
41 407
42 76
43 999
44 33
53 53
54 11
55 470
56 187
57 723
58 42
65 8
67 65
68 49
69 922
70 371
71 563
72 31
77 10
79 13
81 25
82 41
83 435
84 393
85 566
86 36
92 5
95 13
97 115
98 16
99 27
109 8
110 23
111 346
112 71
113 5
125 81
126 29
139 8
153 27
154 53

$$$$
2,4,6,8-TETRAMETHYL-1-UNDECENE (ISOMER 2)
  ACD/LABS04052417143D
Library ID = 17
 15 14  0  0  0  0  0  0  0  0  1 V2000
    8.5759   -7.6236    0.0000 C   0  0  0  0  0  0  0  0  0  0  0  0
    9.7277   -6.9586    0.0000 C   0  0  0  0  0  0  0  0  0  0  0  0
   10.8796   -7.6236    0.0000 C   0  0  0  0  0  0  0  0  0  0  0  0
    9.7277   -5.6286    0.0000 C   0  0  0  0  0  0  0  0  0  0  0  0
   12.0314   -6.9586    0.0000 C   0  0  0  0  0  0  0  0  0  0  0  0
   12.0314   -5.6286    0.0000 C   0  0  0  0  0  0  0  0  0  0  0  0
   13.1832   -7.6236    0.0000 C   0  0  0  0  0  0  0  0  0  0  0  0
   14.3350   -6.9586    0.0000 C   0  0  0  0  0  0  0  0  0  0  0  0
   14.3350   -5.6286    0.0000 C   0  0  0  0  0  0  0  0  0  0  0  0
   15.4868   -7.6236    0.0000 C   0  0  0  0  0  0  0  0  0  0  0  0
   16.6386   -6.9586    0.0000 C   0  0  0  0  0  0  0  0  0  0  0  0
   16.6386   -5.6286    0.0000 C   0  0  0  0  0  0  0  0  0  0  0  0
   17.7904   -7.6236    0.0000 C   0  0  0  0  0  0  0  0  0  0  0  0
   18.9422   -6.9586    0.0000 C   0  0  0  0  0  0  0  0  0  0  0  0
   18.9422   -5.6286    0.0000 C   0  0  0  0  0  0  0  0  0  0  0  0
  1  2  2  0  0  0  0
  2  3  1  0  0  0  0
  2  4  1  0  0  0  0
  3  5  1  0  0  0  0
  5  6  1  0  0  0  0
  5  7  1  0  0  0  0
  7  8  1  0  0  0  0
  8  9  1  0  0  0  0
  8 10  1  0  0  0  0
 10 11  1  0  0  0  0
 11 12  1  0  0  0  0
 11 13  1  0  0  0  0
 13 14  1  0  0  0  0
 14 15  1  0  0  0  0
M  END
>  <NAME>
2,4,6,8-Tetramethyl-1-undecene (isomer 2)

>  <INCHIKEY>
LBMKCDUBYFXSNQ-UHFFFAOYSA-N

>  <POLYMER>
iso-PP (23)

>  <RETENTION INDEX>
SemiStdNP=1308

>  <FORMULA>
C15H30

>  <MW>
210

>  <EXACT MASS>
210.234751

>  <ID>
17

>  <COMMENT>
stereochemistry unknown

>  <NUM PEAKS>
39

>  <MASS SPECTRAL PEAKS>
27 79
29 175
39 85
41 405
42 76
43 999
44 42
46 15
51 14
52 14
53 46
55 471
56 192
57 738
58 25
67 67
68 36
69 970
70 361
71 564
72 14
79 15
81 22
82 40
83 479
84 392
85 522
86 30
95 23
97 142
99 29
109 9
110 15
111 351
112 71
125 94
126 16
153 26
154 41

$$$$
2,4,6,8-TETRAMETHYL-1-UNDECENE (ISOMER 1)
  ACD/LABS04052417143D
CAS rn = 59920262, Library ID = 18
 15 14  0  0  0  0  0  0  0  0  1 V2000
    8.5759   -7.6236    0.0000 C   0  0  0  0  0  0  0  0  0  0  0  0
    9.7277   -6.9586    0.0000 C   0  0  0  0  0  0  0  0  0  0  0  0
   10.8796   -7.6236    0.0000 C   0  0  0  0  0  0  0  0  0  0  0  0
    9.7277   -5.6286    0.0000 C   0  0  0  0  0  0  0  0  0  0  0  0
   12.0314   -6.9586    0.0000 C   0  0  0  0  0  0  0  0  0  0  0  0
   12.0314   -5.6286    0.0000 C   0  0  0  0  0  0  0  0  0  0  0  0
   13.1832   -7.6236    0.0000 C   0  0  0  0  0  0  0  0  0  0  0  0
   14.3350   -6.9586    0.0000 C   0  0  0  0  0  0  0  0  0  0  0  0
   14.3350   -5.6286    0.0000 C   0  0  0  0  0  0  0  0  0  0  0  0
   15.4868   -7.6236    0.0000 C   0  0  0  0  0  0  0  0  0  0  0  0
   16.6386   -6.9586    0.0000 C   0  0  0  0  0  0  0  0  0  0  0  0
   16.6386   -5.6286    0.0000 C   0  0  0  0  0  0  0  0  0  0  0  0
   17.7904   -7.6236    0.0000 C   0  0  0  0  0  0  0  0  0  0  0  0
   18.9422   -6.9586    0.0000 C   0  0  0  0  0  0  0  0  0  0  0  0
   18.9422   -5.6286    0.0000 C   0  0  0  0  0  0  0  0  0  0  0  0
  1  2  2  0  0  0  0
  2  3  1  0  0  0  0
  2  4  1  0  0  0  0
  3  5  1  0  0  0  0
  5  6  1  0  0  0  0
  5  7  1  0  0  0  0
  7  8  1  0  0  0  0
  8  9  1  0  0  0  0
  8 10  1  0  0  0  0
 10 11  1  0  0  0  0
 11 12  1  0  0  0  0
 11 13  1  0  0  0  0
 13 14  1  0  0  0  0
 14 15  1  0  0  0  0
M  END
>  <NAME>
2,4,6,8-Tetramethyl-1-undecene (isomer 1)

>  <INCHIKEY>
LBMKCDUBYFXSNQ-UHFFFAOYSA-N

>  <POLYMER>
iso-PP (23)

>  <RETENTION INDEX>
SemiStdNP=1299.4

>  <FORMULA>
C15H30

>  <MW>
210

>  <EXACT MASS>
210.234751

>  <CASNO>
59920262

>  <ID>
18

>  <COMMENT>
stereochemistry unknown

>  <NUM PEAKS>
50

>  <MASS SPECTRAL PEAKS>
27 65
29 132
34 2
39 89
40 13
41 381
42 75
43 924
44 35
51 6
53 49
54 10
55 462
56 175
57 675
58 34
65 10
67 68
68 50
69 999
70 354
71 553
72 34
77 3
79 14
81 28
82 43
83 479
84 348
85 494
86 35
91 4
95 21
97 121
98 22
99 29
109 14
110 21
111 331
112 71
113 8
123 5
125 95
126 38
127 7
139 7
140 3
153 37
154 36
155 4

$$$$
2,4,6-TRIMETHYL-1-NONENE (ISOMER 1)
  ACD/LABS04052416563D
CAS rn = 55771409, Library ID = 19
 12 11  0  0  0  0  0  0  0  0  1 V2000
    8.5759   -7.6236    0.0000 C   0  0  0  0  0  0  0  0  0  0  0  0
    9.7277   -6.9586    0.0000 C   0  0  0  0  0  0  0  0  0  0  0  0
   10.8796   -7.6236    0.0000 C   0  0  0  0  0  0  0  0  0  0  0  0
    9.7277   -5.6286    0.0000 C   0  0  0  0  0  0  0  0  0  0  0  0
   12.0314   -6.9586    0.0000 C   0  0  0  0  0  0  0  0  0  0  0  0
   12.0314   -5.6286    0.0000 C   0  0  0  0  0  0  0  0  0  0  0  0
   13.1832   -7.6236    0.0000 C   0  0  0  0  0  0  0  0  0  0  0  0
   14.3350   -6.9586    0.0000 C   0  0  0  0  0  0  0  0  0  0  0  0
   14.3350   -5.6286    0.0000 C   0  0  0  0  0  0  0  0  0  0  0  0
   15.4868   -7.6236    0.0000 C   0  0  0  0  0  0  0  0  0  0  0  0
   16.6386   -6.9586    0.0000 C   0  0  0  0  0  0  0  0  0  0  0  0
   16.6386   -5.6286    0.0000 C   0  0  0  0  0  0  0  0  0  0  0  0
  1  2  2  0  0  0  0
  2  3  1  0  0  0  0
  2  4  1  0  0  0  0
  3  5  1  0  0  0  0
  5  6  1  0  0  0  0
  5  7  1  0  0  0  0
  7  8  1  0  0  0  0
  8  9  1  0  0  0  0
  8 10  1  0  0  0  0
 10 11  1  0  0  0  0
 11 12  1  0  0  0  0
M  END
>  <NAME>
2,4,6-Trimethyl-1-nonene (isomer 1)

>  <INCHIKEY>
QFMQAIUZMMQKTB-UHFFFAOYSA-N

>  <POLYMER>
iso-PP (23)

>  <RETENTION INDEX>
SemiStdNP=1073.8

>  <FORMULA>
C12H24

>  <MW>
168

>  <EXACT MASS>
168.1878

>  <CASNO>
55771409

>  <ID>
19

>  <COMMENT>
unknown stereochemistry

>  <NUM PEAKS>
43

>  <MASS SPECTRAL PEAKS>
16 7
20 3
27 107
29 189
39 138
40 18
41 482
42 85
43 999
44 29
51 5
53 65
54 11
55 533
56 193
57 810
58 32
65 10
67 71
68 42
69 980
70 532
71 639
72 33
77 9
79 16
81 25
82 32
83 415
84 260
85 69
95 13
97 93
98 15
99 16
109 3
110 13
111 234
112 162
113 7
125 91
126 7
160 5

$$$$
2,4,6-TRIMETHYL-1-HEPTENE
  ACD/LABS04052416113D
CAS rn = 102943771, Library ID = 20
 10  9  0  0  0  0  0  0  0  0  1 V2000
    8.5759   -7.6236    0.0000 C   0  0  0  0  0  0  0  0  0  0  0  0
    9.7277   -6.9586    0.0000 C   0  0  0  0  0  0  0  0  0  0  0  0
   10.8796   -7.6236    0.0000 C   0  0  0  0  0  0  0  0  0  0  0  0
    9.7277   -5.6286    0.0000 C   0  0  0  0  0  0  0  0  0  0  0  0
   12.0314   -6.9586    0.0000 C   0  0  0  0  0  0  0  0  0  0  0  0
   12.0314   -5.6286    0.0000 C   0  0  0  0  0  0  0  0  0  0  0  0
   13.1832   -7.6236    0.0000 C   0  0  0  0  0  0  0  0  0  0  0  0
   14.3350   -6.9586    0.0000 C   0  0  0  0  0  0  0  0  0  0  0  0
   14.3350   -5.6286    0.0000 C   0  0  0  0  0  0  0  0  0  0  0  0
   15.4868   -7.6236    0.0000 C   0  0  0  0  0  0  0  0  0  0  0  0
  1  2  2  0  0  0  0
  2  3  1  0  0  0  0
  2  4  1  0  0  0  0
  3  5  1  0  0  0  0
  5  6  1  0  0  0  0
  5  7  1  0  0  0  0
  7  8  1  0  0  0  0
  8  9  1  0  0  0  0
  8 10  1  0  0  0  0
M  END
>  <NAME>
2,4,6-Trimethyl-1-heptene

>  <INCHIKEY>
HZYGXQDUQZVUFS-UHFFFAOYSA-N

>  <POLYMER>
iso-PP (23)

>  <RETENTION INDEX>
SemiStdNP=884.9

>  <FORMULA>
C10H20

>  <MW>
140

>  <EXACT MASS>
140.156501

>  <CASNO>
102943771

>  <ID>
20

>  <NUM PEAKS>
33

>  <MASS SPECTRAL PEAKS>
16 5
23 4
26 3
27 74
29 92
39 104
40 18
41 284
42 38
43 999
44 32
51 7
53 36
54 9
55 201
56 156
57 189
58 4
63 3
65 9
67 32
68 6
69 511
70 29
77 5
81 18
82 43
83 423
84 386
85 134
97 11
125 9
140 6

$$$$
2,4-DIMETHYL-1-HEPTENE
  ACD/LABS04052416083D
CAS rn = 19549872, Library ID = 21
  9  8  0  0  0  0  0  0  0  0  1 V2000
    8.5759   -7.6236    0.0000 C   0  0  0  0  0  0  0  0  0  0  0  0
    9.7277   -6.9586    0.0000 C   0  0  0  0  0  0  0  0  0  0  0  0
   10.8796   -7.6236    0.0000 C   0  0  0  0  0  0  0  0  0  0  0  0
    9.7277   -5.6286    0.0000 C   0  0  0  0  0  0  0  0  0  0  0  0
   12.0314   -6.9586    0.0000 C   0  0  0  0  0  0  0  0  0  0  0  0
   12.0314   -5.6286    0.0000 C   0  0  0  0  0  0  0  0  0  0  0  0
   13.1832   -7.6236    0.0000 C   0  0  0  0  0  0  0  0  0  0  0  0
   14.3350   -6.9586    0.0000 C   0  0  0  0  0  0  0  0  0  0  0  0
   14.3350   -5.6286    0.0000 C   0  0  0  0  0  0  0  0  0  0  0  0
  1  2  2  0  0  0  0
  2  3  1  0  0  0  0
  2  4  1  0  0  0  0
  3  5  1  0  0  0  0
  5  6  1  0  0  0  0
  5  7  1  0  0  0  0
  7  8  1  0  0  0  0
  8  9  1  0  0  0  0
M  END
>  <NAME>
2,4-Dimethyl-1-heptene

>  <INCHIKEY>
CZGAOHSMVSIJJZ-UHFFFAOYSA-N

>  <RETENTION INDEX>
SemiStdNP=831.4

>  <POLYMER>
iso-PP (23)

>  <FORMULA>
C9H18

>  <MW>
126

>  <EXACT MASS>
126.1408505

>  <CASNO>
19549872

>  <ID>
21

>  <NUM PEAKS>
50

>  <MASS SPECTRAL PEAKS>
15 2
23 1
26 2
27 102
29 140
30 2
37 1
38 7
39 186
40 36
41 370
42 135
43 999
44 34
50 8
51 22
52 9
53 76
54 23
55 599
56 358
57 337
58 16
62 1
63 5
65 19
66 5
67 59
68 129
69 209
70 914
71 254
72 14
77 16
78 3
79 17
80 1
81 15
82 11
83 239
84 56
85 4
91 5
95 5
97 9
98 1
109 1
111 17
126 63
127 6

$$$$
2-METHYL-1-PENTENE
  ACD/LABS04052415413D
CAS rn = 763291, Library ID = 22
  6  5  0  0  0  0  0  0  0  0  1 V2000
    8.5759   -7.6236    0.0000 C   0  0  0  0  0  0  0  0  0  0  0  0
    9.7277   -6.9586    0.0000 C   0  0  0  0  0  0  0  0  0  0  0  0
   10.8796   -7.6236    0.0000 C   0  0  0  0  0  0  0  0  0  0  0  0
    9.7277   -5.6286    0.0000 C   0  0  0  0  0  0  0  0  0  0  0  0
   12.0314   -6.9586    0.0000 C   0  0  0  0  0  0  0  0  0  0  0  0
   12.0314   -5.6286    0.0000 C   0  0  0  0  0  0  0  0  0  0  0  0
  1  2  2  0  0  0  0
  2  3  1  0  0  0  0
  2  4  1  0  0  0  0
  3  5  1  0  0  0  0
  5  6  1  0  0  0  0
M  END
>  <NAME>
2-Methyl-1-pentene

>  <INCHIKEY>
WWUVJRULCWHUSA-UHFFFAOYSA-N

>  <RETENTION INDEX>
SemiStdNP=585.8

>  <POLYMER>
iso-PP (23)

>  <FORMULA>
C6H12

>  <MW>
84

>  <EXACT MASS>
84.0939

>  <CASNO>
763291

>  <ID>
22

>  <NUM PEAKS>
28

>  <MASS SPECTRAL PEAKS>
15 7
20 3
26 10
27 144
28 32
29 171
37 8
38 27
39 262
40 64
41 673
42 207
50 18
51 31
52 9
53 92
54 22
55 440
56 999
57 43
63 4
65 10
67 38
69 338
70 14
79 3
84 327
85 25

$$$$
HENEICOSANE
  ACD/LABS04052411462D
CAS rn = 629947, Library ID = 23
 21 20  0  0  0  0  0  0  0  0  1 V2000
    9.0731   -6.7479    0.0000 C   0  0  0  0  0  0  0  0  0  0  0  0
   10.2249   -6.0829    0.0000 C   0  0  0  0  0  0  0  0  0  0  0  0
   11.3767   -6.7479    0.0000 C   0  0  0  0  0  0  0  0  0  0  0  0
   12.5285   -6.0829    0.0000 C   0  0  0  0  0  0  0  0  0  0  0  0
   13.6803   -6.7479    0.0000 C   0  0  0  0  0  0  0  0  0  0  0  0
   14.8321   -6.0829    0.0000 C   0  0  0  0  0  0  0  0  0  0  0  0
   15.9839   -6.7479    0.0000 C   0  0  0  0  0  0  0  0  0  0  0  0
   17.1357   -6.0829    0.0000 C   0  0  0  0  0  0  0  0  0  0  0  0
   18.2876   -6.7479    0.0000 C   0  0  0  0  0  0  0  0  0  0  0  0
   19.4394   -6.0829    0.0000 C   0  0  0  0  0  0  0  0  0  0  0  0
   20.5912   -6.7479    0.0000 C   0  0  0  0  0  0  0  0  0  0  0  0
   21.7430   -6.0829    0.0000 C   0  0  0  0  0  0  0  0  0  0  0  0
   22.8948   -6.7479    0.0000 C   0  0  0  0  0  0  0  0  0  0  0  0
   24.0466   -6.0829    0.0000 C   0  0  0  0  0  0  0  0  0  0  0  0
   25.1984   -6.7479    0.0000 C   0  0  0  0  0  0  0  0  0  0  0  0
   26.3503   -6.0829    0.0000 C   0  0  0  0  0  0  0  0  0  0  0  0
   27.5021   -6.7479    0.0000 C   0  0  0  0  0  0  0  0  0  0  0  0
   28.6539   -6.0829    0.0000 C   0  0  0  0  0  0  0  0  0  0  0  0
   29.8057   -6.7479    0.0000 C   0  0  0  0  0  0  0  0  0  0  0  0
   30.9575   -6.0829    0.0000 C   0  0  0  0  0  0  0  0  0  0  0  0
   32.1093   -6.7479    0.0000 C   0  0  0  0  0  0  0  0  0  0  0  0
  2  1  1  0  0  0  0
  3  2  1  0  0  0  0
  4  3  1  0  0  0  0
  5  4  1  0  0  0  0
  6  5  1  0  0  0  0
  7  6  1  0  0  0  0
  8  7  1  0  0  0  0
  9  8  1  0  0  0  0
 10  9  1  0  0  0  0
 11 10  1  0  0  0  0
 12 11  1  0  0  0  0
 13 12  1  0  0  0  0
 14 13  1  0  0  0  0
 15 14  1  0  0  0  0
 16 15  1  0  0  0  0
 17 16  1  0  0  0  0
 18 17  1  0  0  0  0
 19 18  1  0  0  0  0
 20 19  1  0  0  0  0
 21 20  1  0  0  0  0
M  END
>  <NAME>
Heneicosane

>  <INCHIKEY>
FNAZRRHPUDJQCJ-UHFFFAOYSA-N

>  <RETENTION INDEX>
SemiStdNP=2100

>  <POLYMER>
PE (48)

>  <FORMULA>
C21H44

>  <MW>
296

>  <EXACT MASS>
296.344301

>  <CASNO>
629947

>  <ID>
23

>  <NUM PEAKS>
39

>  <MASS SPECTRAL PEAKS>
23 5
27 22
29 76
38 6
39 19
41 161
42 54
43 578
44 18
50 7
53 7
54 7
55 114
56 92
57 999
58 43
67 5
69 68
70 82
71 692
72 37
83 43
84 51
85 472
86 38
97 25
98 34
99 123
100 8
111 21
112 24
113 73
125 7
126 14
127 47
140 6
141 23
155 13
169 7

$$$$
TRICOSANE
  -NISTMS-12099911132D 1   1.0         0.0          
CAS rn = 638675, Library ID = 24
 23 22  0  0  0  0  0  0  0  0  0
    0.6889    0.8104    0.0000 C   0  0  0     0  0  0  0  0  0
    0.0000    0.4052    0.0000 C   0  0  0     0  0  0  0  0  0
    1.4182    0.4052    0.0000 C   0  0  0     0  0  0  0  0  0
   -0.6889    0.8104    0.0000 C   0  0  0     0  0  0  0  0  0
   -1.4182    0.4052    0.0000 C   0  0  0     0  0  0  0  0  0
    2.1071    0.8104    0.0000 C   0  0  0     0  0  0  0  0  0
   -2.1071    0.8104    0.0000 C   0  0  0     0  0  0  0  0  0
    2.7960    0.4052    0.0000 C   0  0  0     0  0  0  0  0  0
   -2.7960    0.4052    0.0000 C   0  0  0     0  0  0  0  0  0
    3.5254    0.8104    0.0000 C   0  0  0     0  0  0  0  0  0
   -3.5254    0.8104    0.0000 C   0  0  0     0  0  0  0  0  0
    4.2142    0.4052    0.0000 C   0  0  0     0  0  0  0  0  0
   -4.2142    0.4052    0.0000 C   0  0  0     0  0  0  0  0  0
    4.9031    0.8104    0.0000 C   0  0  0     0  0  0  0  0  0
   -4.9031    0.8104    0.0000 C   0  0  0     0  0  0  0  0  0
    5.6325    0.4052    0.0000 C   0  0  0     0  0  0  0  0  0
   -5.6325    0.4052    0.0000 C   0  0  0     0  0  0  0  0  0
    6.3213    0.8104    0.0000 C   0  0  0     0  0  0  0  0  0
   -6.3213    0.8104    0.0000 C   0  0  0     0  0  0  0  0  0
    7.0102    0.4052    0.0000 C   0  0  0     0  0  0  0  0  0
   -7.0102    0.4052    0.0000 C   0  0  0     0  0  0  0  0  0
    7.7396    0.8104    0.0000 C   0  0  0     0  0  0  0  0  0
   -7.7396    0.8104    0.0000 C   0  0  0     0  0  0  0  0  0
  1  2  1  0  0  0  0
  1  3  1  0  0  0  0
  2  4  1  0  0  0  0
  3  6  1  0  0  0  0
  4  5  1  0  0  0  0
  5  7  1  0  0  0  0
  6  8  1  0  0  0  0
  7  9  1  0  0  0  0
  8 10  1  0  0  0  0
  9 11  1  0  0  0  0
 10 12  1  0  0  0  0
 11 13  1  0  0  0  0
 12 14  1  0  0  0  0
 13 15  1  0  0  0  0
 14 16  1  0  0  0  0
 15 17  1  0  0  0  0
 16 18  1  0  0  0  0
 17 19  1  0  0  0  0
 18 20  1  0  0  0  0
 19 21  1  0  0  0  0
 20 22  1  0  0  0  0
 21 23  1  0  0  0  0
>  <NAME>
Tricosane

>  <INCHIKEY>
FIGVVZUWCLSUEI-UHFFFAOYSA-N

>  <RETENTION INDEX>
SemiStdNP=2300

>  <POLYMER>
PE (48)

>  <FORMULA>
C23H48

>  <MW>
324

>  <EXACT MASS>
324.3756

>  <CASNO>
638675

>  <ID>
24

>  <NUM PEAKS>
32

>  <MASS SPECTRAL PEAKS>
27 11
29 68
39 11
41 151
42 44
43 566
44 20
53 6
55 95
56 65
57 999
58 49
61 6
69 44
70 53
71 751
72 43
84 27
85 513
86 31
98 19
99 148
110 4
112 15
113 86
126 11
127 54
140 13
141 33
155 23
169 14
236 5

$$$$
1-TRICOSENE
  -NISTMS-12099911132D 1   1.0         0.0          
CAS rn = 18835320, Library ID = 25
 23 22  0  0  0  0  0  0  0  0  0
   -7.4082    0.4477    0.0000 C   0  0  0     0  0  0  0  0  0
   -8.1815    0.7734    0.0000 C   0  0  0     0  0  0  0  0  0
   -6.6755    0.7734    0.0000 C   0  0  0     0  0  0  0  0  0
   -5.9428    0.4477    0.0000 C   0  0  0     0  0  0  0  0  0
   -5.2101    0.7734    0.0000 C   0  0  0     0  0  0  0  0  0
   -4.4368    0.4477    0.0000 C   0  0  0     0  0  0  0  0  0
   -3.7041    0.7734    0.0000 C   0  0  0     0  0  0  0  0  0
   -2.9714    0.4477    0.0000 C   0  0  0     0  0  0  0  0  0
   -2.1980    0.7734    0.0000 C   0  0  0     0  0  0  0  0  0
   -1.4654    0.4477    0.0000 C   0  0  0     0  0  0  0  0  0
   -0.6920    0.7734    0.0000 C   0  0  0     0  0  0  0  0  0
    0.0000    0.4477    0.0000 C   0  0  0     0  0  0  0  0  0
    0.7327    0.7734    0.0000 C   0  0  0     0  0  0  0  0  0
    1.4654    0.4477    0.0000 C   0  0  0     0  0  0  0  0  0
    2.1980    0.7734    0.0000 C   0  0  0     0  0  0  0  0  0
    2.9714    0.4477    0.0000 C   0  0  0     0  0  0  0  0  0
    3.7041    0.7734    0.0000 C   0  0  0     0  0  0  0  0  0
    4.4775    0.4477    0.0000 C   0  0  0     0  0  0  0  0  0
    5.2101    0.7734    0.0000 C   0  0  0     0  0  0  0  0  0
    5.9835    0.4477    0.0000 C   0  0  0     0  0  0  0  0  0
    6.6755    0.7734    0.0000 C   0  0  0     0  0  0  0  0  0
    7.4082    0.4477    0.0000 C   0  0  0     0  0  0  0  0  0
    8.1815    0.7734    0.0000 C   0  0  0     0  0  0  0  0  0
  1  2  1  0  0  0  0
  1  3  1  0  0  0  0
  3  4  1  0  0  0  0
  4  5  1  0  0  0  0
  5  6  1  0  0  0  0
  6  7  1  0  0  0  0
  7  8  1  0  0  0  0
  8  9  1  0  0  0  0
  9 10  1  0  0  0  0
 10 11  1  0  0  0  0
 11 12  1  0  0  0  0
 12 13  1  0  0  0  0
 13 14  1  0  0  0  0
 14 15  1  0  0  0  0
 15 16  1  0  0  0  0
 16 17  1  0  0  0  0
 17 18  1  0  0  0  0
 18 19  1  0  0  0  0
 19 20  1  0  0  0  0
 20 21  1  0  0  0  0
 21 22  1  0  0  0  0
 22 23  2  0  0  0  0
>  <NAME>
1-Tricosene

>  <INCHIKEY>
SJDSOBWGZRPKSB-UHFFFAOYSA-N

>  <RETENTION INDEX>
SemiStdNP=2291.8

>  <POLYMER>
PE (48)

>  <FORMULA>
C23H46

>  <MW>
322

>  <EXACT MASS>
322.359951

>  <CASNO>
18835320

>  <ID>
25

>  <NUM PEAKS>
51

>  <MASS SPECTRAL PEAKS>
27 37
29 144
36 8
39 53
40 5
41 461
42 113
43 818
44 30
53 34
54 89
55 788
56 463
57 999
58 40
66 17
67 131
68 112
69 741
70 439
71 535
72 35
79 7
81 73
82 204
83 975
84 315
85 307
86 27
95 33
96 106
97 918
98 209
99 65
109 8
110 58
111 424
112 126
113 37
123 23
124 35
125 187
126 72
127 23
138 28
139 78
140 49
153 29
154 30
167 9
168 22

$$$$
1,22-TRICOSADIENE
  ACD/LABS03252412292D
CAS rn = 146860813, Library ID = 26
 23 22  0  0  0  0  0  0  0  0  1 V2000
    5.1415  -10.5691    0.0000 C   0  0  0  0  0  0  0  0  0  0  0  0
    6.2933   -9.9041    0.0000 C   0  0  0  0  0  0  0  0  0  0  0  0
    7.4451  -10.5691    0.0000 C   0  0  0  0  0  0  0  0  0  0  0  0
    8.5969   -9.9041    0.0000 C   0  0  0  0  0  0  0  0  0  0  0  0
    9.7488  -10.5691    0.0000 C   0  0  0  0  0  0  0  0  0  0  0  0
   10.9006   -9.9041    0.0000 C   0  0  0  0  0  0  0  0  0  0  0  0
   12.0524  -10.5691    0.0000 C   0  0  0  0  0  0  0  0  0  0  0  0
   13.2042   -9.9041    0.0000 C   0  0  0  0  0  0  0  0  0  0  0  0
   14.3560  -10.5691    0.0000 C   0  0  0  0  0  0  0  0  0  0  0  0
   15.5078   -9.9041    0.0000 C   0  0  0  0  0  0  0  0  0  0  0  0
   16.6596  -10.5691    0.0000 C   0  0  0  0  0  0  0  0  0  0  0  0
   17.8115   -9.9041    0.0000 C   0  0  0  0  0  0  0  0  0  0  0  0
   18.9633  -10.5691    0.0000 C   0  0  0  0  0  0  0  0  0  0  0  0
   20.1151   -9.9041    0.0000 C   0  0  0  0  0  0  0  0  0  0  0  0
   21.2669  -10.5691    0.0000 C   0  0  0  0  0  0  0  0  0  0  0  0
   22.4187   -9.9041    0.0000 C   0  0  0  0  0  0  0  0  0  0  0  0
   23.5705  -10.5691    0.0000 C   0  0  0  0  0  0  0  0  0  0  0  0
   24.7223   -9.9041    0.0000 C   0  0  0  0  0  0  0  0  0  0  0  0
   25.8741  -10.5691    0.0000 C   0  0  0  0  0  0  0  0  0  0  0  0
   27.0260   -9.9041    0.0000 C   0  0  0  0  0  0  0  0  0  0  0  0
   28.1778  -10.5691    0.0000 C   0  0  0  0  0  0  0  0  0  0  0  0
   29.3296   -9.9041    0.0000 C   0  0  0  0  0  0  0  0  0  0  0  0
   30.4814  -10.5691    0.0000 C   0  0  0  0  0  0  0  0  0  0  0  0
  2  1  2  0  0  0  0
  3  2  1  0  0  0  0
  4  3  1  0  0  0  0
  5  4  1  0  0  0  0
  6  5  1  0  0  0  0
  7  6  1  0  0  0  0
  8  7  1  0  0  0  0
  9  8  1  0  0  0  0
 10  9  1  0  0  0  0
 11 10  1  0  0  0  0
 12 11  1  0  0  0  0
 13 12  1  0  0  0  0
 14 13  1  0  0  0  0
 15 14  1  0  0  0  0
 15 16  1  0  0  0  0
 16 17  1  0  0  0  0
 17 18  1  0  0  0  0
 18 19  1  0  0  0  0
 19 20  1  0  0  0  0
 20 21  1  0  0  0  0
 21 22  1  0  0  0  0
 22 23  2  0  0  0  0
M  END
>  <NAME>
1,22-Tricosadiene

>  <INCHIKEY>
ICDYZNZLDXPAPX-UHFFFAOYSA-N

>  <RETENTION INDEX>
SemiStdNP=2285.7

>  <POLYMER>
PE (48)

>  <FORMULA>
C23H44

>  <MW>
320

>  <EXACT MASS>
320.344301

>  <CASNO>
146860813

>  <ID>
26

>  <COMMENT>
not in mainlib

>  <NUM PEAKS>
39

>  <MASS SPECTRAL PEAKS>
16 17
19 14
24 18
27 42
29 134
39 68
41 533
42 105
43 416
53 44
54 220
55 999
56 258
57 348
66 33
67 390
68 399
69 687
70 234
71 164
80 37
81 517
82 756
83 597
84 62
95 401
96 578
97 385
98 43
109 238
110 182
111 85
123 107
124 87
126 23
137 57
138 36
151 14
296 11

$$$$
DOCOSANE
  -NISTMS-12099911132D 1   1.0         0.0          
CAS rn = 629970, Library ID = 27
 22 21  0  0  0  0  0  0  0  0  0
    0.3652    0.8115    0.0000 C   0  0  0     0  0  0  0  0  0
   -0.3652    0.4057    0.0000 C   0  0  0     0  0  0  0  0  0
    1.0549    0.4057    0.0000 C   0  0  0     0  0  0  0  0  0
   -1.0549    0.8115    0.0000 C   0  0  0     0  0  0  0  0  0
   -1.7447    0.4057    0.0000 C   0  0  0     0  0  0  0  0  0
    1.7447    0.8115    0.0000 C   0  0  0     0  0  0  0  0  0
   -2.4751    0.8115    0.0000 C   0  0  0     0  0  0  0  0  0
    2.4751    0.4057    0.0000 C   0  0  0     0  0  0  0  0  0
   -3.1648    0.4057    0.0000 C   0  0  0     0  0  0  0  0  0
    3.1648    0.8115    0.0000 C   0  0  0     0  0  0  0  0  0
   -3.8546    0.8115    0.0000 C   0  0  0     0  0  0  0  0  0
    3.8546    0.4057    0.0000 C   0  0  0     0  0  0  0  0  0
   -4.5849    0.4057    0.0000 C   0  0  0     0  0  0  0  0  0
    4.5849    0.8115    0.0000 C   0  0  0     0  0  0  0  0  0
   -5.2747    0.8115    0.0000 C   0  0  0     0  0  0  0  0  0
    5.2747    0.4057    0.0000 C   0  0  0     0  0  0  0  0  0
   -5.9645    0.4057    0.0000 C   0  0  0     0  0  0  0  0  0
    5.9645    0.8115    0.0000 C   0  0  0     0  0  0  0  0  0
   -6.6948    0.8115    0.0000 C   0  0  0     0  0  0  0  0  0
    6.6948    0.4057    0.0000 C   0  0  0     0  0  0  0  0  0
   -7.3846    0.4057    0.0000 C   0  0  0     0  0  0  0  0  0
    7.3846    0.8115    0.0000 C   0  0  0     0  0  0  0  0  0
  1  2  1  0  0  0  0
  1  3  1  0  0  0  0
  2  4  1  0  0  0  0
  3  6  1  0  0  0  0
  4  5  1  0  0  0  0
  5  7  1  0  0  0  0
  6  8  1  0  0  0  0
  7  9  1  0  0  0  0
  8 10  1  0  0  0  0
  9 11  1  0  0  0  0
 10 12  1  0  0  0  0
 11 13  1  0  0  0  0
 12 14  1  0  0  0  0
 13 15  1  0  0  0  0
 14 16  1  0  0  0  0
 15 17  1  0  0  0  0
 16 18  1  0  0  0  0
 17 19  1  0  0  0  0
 18 20  1  0  0  0  0
 19 21  1  0  0  0  0
 20 22  1  0  0  0  0
>  <NAME>
Docosane

>  <INCHIKEY>
HOWGUJZVBDQJKV-UHFFFAOYSA-N

>  <RETENTION INDEX>
SemiStdNP=2200

>  <POLYMER>
PE (48)

>  <FORMULA>
C22H46

>  <MW>
310

>  <EXACT MASS>
310.359951

>  <CASNO>
629970

>  <ID>
27

>  <NUM PEAKS>
40

>  <MASS SPECTRAL PEAKS>
14 5
15 6
27 21
29 72
34 5
39 16
40 6
41 161
42 42
43 563
44 17
53 4
54 6
55 104
56 88
57 999
58 42
69 60
70 67
71 688
72 37
74 7
83 30
84 48
85 491
86 37
97 23
98 33
99 136
111 14
112 19
113 76
125 3
126 19
127 50
140 8
141 30
155 18
162 7
169 9

$$$$
1-DOCOSENE
  ACD/LABS03252411572D
CAS rn = 1599673, Library ID = 28
 22 21  0  0  0  0  0  0  0  0  1 V2000
    5.1415  -10.5691    0.0000 C   0  0  0  0  0  0  0  0  0  0  0  0
    6.2933   -9.9041    0.0000 C   0  0  0  0  0  0  0  0  0  0  0  0
    7.4451  -10.5691    0.0000 C   0  0  0  0  0  0  0  0  0  0  0  0
    8.5969   -9.9041    0.0000 C   0  0  0  0  0  0  0  0  0  0  0  0
    9.7488  -10.5691    0.0000 C   0  0  0  0  0  0  0  0  0  0  0  0
   10.9006   -9.9041    0.0000 C   0  0  0  0  0  0  0  0  0  0  0  0
   12.0524  -10.5691    0.0000 C   0  0  0  0  0  0  0  0  0  0  0  0
   13.2042   -9.9041    0.0000 C   0  0  0  0  0  0  0  0  0  0  0  0
   14.3560  -10.5691    0.0000 C   0  0  0  0  0  0  0  0  0  0  0  0
   15.5078   -9.9041    0.0000 C   0  0  0  0  0  0  0  0  0  0  0  0
   16.6596  -10.5691    0.0000 C   0  0  0  0  0  0  0  0  0  0  0  0
   17.8115   -9.9041    0.0000 C   0  0  0  0  0  0  0  0  0  0  0  0
   18.9633  -10.5691    0.0000 C   0  0  0  0  0  0  0  0  0  0  0  0
   20.1151   -9.9041    0.0000 C   0  0  0  0  0  0  0  0  0  0  0  0
   21.2669  -10.5691    0.0000 C   0  0  0  0  0  0  0  0  0  0  0  0
   22.4187   -9.9041    0.0000 C   0  0  0  0  0  0  0  0  0  0  0  0
   23.5705  -10.5691    0.0000 C   0  0  0  0  0  0  0  0  0  0  0  0
   24.7223   -9.9041    0.0000 C   0  0  0  0  0  0  0  0  0  0  0  0
   25.8741  -10.5691    0.0000 C   0  0  0  0  0  0  0  0  0  0  0  0
   27.0260   -9.9041    0.0000 C   0  0  0  0  0  0  0  0  0  0  0  0
   28.1778  -10.5691    0.0000 C   0  0  0  0  0  0  0  0  0  0  0  0
   29.3296   -9.9041    0.0000 C   0  0  0  0  0  0  0  0  0  0  0  0
  2  1  2  0  0  0  0
  3  2  1  0  0  0  0
  4  3  1  0  0  0  0
  5  4  1  0  0  0  0
  6  5  1  0  0  0  0
  7  6  1  0  0  0  0
  8  7  1  0  0  0  0
  9  8  1  0  0  0  0
 10  9  1  0  0  0  0
 11 10  1  0  0  0  0
 12 11  1  0  0  0  0
 13 12  1  0  0  0  0
 14 13  1  0  0  0  0
 15 14  1  0  0  0  0
 15 16  1  0  0  0  0
 16 17  1  0  0  0  0
 17 18  1  0  0  0  0
 18 19  1  0  0  0  0
 19 20  1  0  0  0  0
 20 21  1  0  0  0  0
 21 22  1  0  0  0  0
M  END
>  <NAME>
1-Docosene

>  <INCHIKEY>
SPURMHFLEKVAAS-UHFFFAOYSA-N

>  <RETENTION INDEX>
SemiStdNP=2191.6

>  <POLYMER>
PE (48)

>  <FORMULA>
C22H44

>  <MW>
308

>  <EXACT MASS>
308.344301

>  <CASNO>
1599673

>  <ID>
28

>  <NUM PEAKS>
50

>  <MASS SPECTRAL PEAKS>
27 56
29 150
39 63
40 21
41 520
42 113
43 811
44 23
53 39
54 108
55 798
56 485
57 999
58 47
62 4
66 3
67 143
68 128
69 750
70 475
71 521
72 35
79 9
81 82
82 218
83 958
84 330
85 314
86 23
95 33
96 121
97 917
98 215
99 74
110 62
111 420
112 133
113 29
123 15
124 27
125 174
126 82
127 18
138 14
139 60
140 39
153 27
154 23
168 13
182 9

$$$$
1,21-DOCOSADIENE
  ACD/LABS03252411522D
CAS rn = 53057537, Library ID = 29
 22 21  0  0  0  0  0  0  0  0  1 V2000
    5.1415  -10.5691    0.0000 C   0  0  0  0  0  0  0  0  0  0  0  0
    6.2933   -9.9041    0.0000 C   0  0  0  0  0  0  0  0  0  0  0  0
    7.4451  -10.5691    0.0000 C   0  0  0  0  0  0  0  0  0  0  0  0
    8.5969   -9.9041    0.0000 C   0  0  0  0  0  0  0  0  0  0  0  0
    9.7488  -10.5691    0.0000 C   0  0  0  0  0  0  0  0  0  0  0  0
   10.9006   -9.9041    0.0000 C   0  0  0  0  0  0  0  0  0  0  0  0
   12.0524  -10.5691    0.0000 C   0  0  0  0  0  0  0  0  0  0  0  0
   13.2042   -9.9041    0.0000 C   0  0  0  0  0  0  0  0  0  0  0  0
   14.3560  -10.5691    0.0000 C   0  0  0  0  0  0  0  0  0  0  0  0
   15.5078   -9.9041    0.0000 C   0  0  0  0  0  0  0  0  0  0  0  0
   16.6596  -10.5691    0.0000 C   0  0  0  0  0  0  0  0  0  0  0  0
   17.8115   -9.9041    0.0000 C   0  0  0  0  0  0  0  0  0  0  0  0
   18.9633  -10.5691    0.0000 C   0  0  0  0  0  0  0  0  0  0  0  0
   20.1151   -9.9041    0.0000 C   0  0  0  0  0  0  0  0  0  0  0  0
   21.2669  -10.5691    0.0000 C   0  0  0  0  0  0  0  0  0  0  0  0
   22.4187   -9.9041    0.0000 C   0  0  0  0  0  0  0  0  0  0  0  0
   23.5705  -10.5691    0.0000 C   0  0  0  0  0  0  0  0  0  0  0  0
   24.7223   -9.9041    0.0000 C   0  0  0  0  0  0  0  0  0  0  0  0
   25.8741  -10.5691    0.0000 C   0  0  0  0  0  0  0  0  0  0  0  0
   27.0260   -9.9041    0.0000 C   0  0  0  0  0  0  0  0  0  0  0  0
   28.1778  -10.5691    0.0000 C   0  0  0  0  0  0  0  0  0  0  0  0
   29.3296   -9.9041    0.0000 C   0  0  0  0  0  0  0  0  0  0  0  0
  2  1  2  0  0  0  0
  3  2  1  0  0  0  0
  4  3  1  0  0  0  0
  5  4  1  0  0  0  0
  6  5  1  0  0  0  0
  7  6  1  0  0  0  0
  8  7  1  0  0  0  0
  9  8  1  0  0  0  0
 10  9  1  0  0  0  0
 11 10  1  0  0  0  0
 12 11  1  0  0  0  0
 13 12  1  0  0  0  0
 14 13  1  0  0  0  0
 15 14  1  0  0  0  0
 15 16  1  0  0  0  0
 16 17  1  0  0  0  0
 17 18  1  0  0  0  0
 18 19  1  0  0  0  0
 19 20  1  0  0  0  0
 20 21  1  0  0  0  0
 21 22  2  0  0  0  0
M  END
>  <NAME>
1,21-Docosadiene

>  <INCHIKEY>
RBJABTJRYMHYOP-UHFFFAOYSA-N

>  <RETENTION INDEX>
SemiStdNP=2185.4

>  <POLYMER>
PE (48)

>  <FORMULA>
C22H42

>  <MW>
306

>  <EXACT MASS>
306.328651

>  <CASNO>
53057537

>  <ID>
29

>  <COMMENT>
not in mainlib

>  <NUM PEAKS>
40

>  <MASS SPECTRAL PEAKS>
27 34
29 134
39 57
41 530
42 118
43 411
49 14
53 52
54 213
55 999
56 266
57 401
66 17
67 374
68 363
69 658
70 264
71 177
79 17
80 15
81 471
82 685
83 637
84 97
85 79
94 17
95 361
96 535
97 398
98 37
109 235
110 163
111 80
112 15
123 95
124 68
125 24
137 48
138 41
148 17

$$$$
1-HENEICOSENE
  ACD/LABS03252411232D
CAS rn = 1599684, Library ID = 30
 21 20  0  0  0  0  0  0  0  0  1 V2000
    5.7174   -9.9041    0.0000 C   0  0  0  0  0  0  0  0  0  0  0  0
    6.8692   -9.2391    0.0000 C   0  0  0  0  0  0  0  0  0  0  0  0
    8.0210   -9.9041    0.0000 C   0  0  0  0  0  0  0  0  0  0  0  0
    9.1729   -9.2391    0.0000 C   0  0  0  0  0  0  0  0  0  0  0  0
   10.3247   -9.9041    0.0000 C   0  0  0  0  0  0  0  0  0  0  0  0
   11.4765   -9.2391    0.0000 C   0  0  0  0  0  0  0  0  0  0  0  0
   12.6283   -9.9041    0.0000 C   0  0  0  0  0  0  0  0  0  0  0  0
   13.7801   -9.2391    0.0000 C   0  0  0  0  0  0  0  0  0  0  0  0
   14.9319   -9.9041    0.0000 C   0  0  0  0  0  0  0  0  0  0  0  0
   16.0837   -9.2391    0.0000 C   0  0  0  0  0  0  0  0  0  0  0  0
   17.2355   -9.9041    0.0000 C   0  0  0  0  0  0  0  0  0  0  0  0
   18.3874   -9.2391    0.0000 C   0  0  0  0  0  0  0  0  0  0  0  0
   19.5392   -9.9041    0.0000 C   0  0  0  0  0  0  0  0  0  0  0  0
   20.6910   -9.2391    0.0000 C   0  0  0  0  0  0  0  0  0  0  0  0
   21.8428   -9.9041    0.0000 C   0  0  0  0  0  0  0  0  0  0  0  0
   22.9946   -9.2391    0.0000 C   0  0  0  0  0  0  0  0  0  0  0  0
   24.1464   -9.9041    0.0000 C   0  0  0  0  0  0  0  0  0  0  0  0
   25.2982   -9.2391    0.0000 C   0  0  0  0  0  0  0  0  0  0  0  0
   26.4501   -9.9041    0.0000 C   0  0  0  0  0  0  0  0  0  0  0  0
   27.6019   -9.2391    0.0000 C   0  0  0  0  0  0  0  0  0  0  0  0
   28.7537   -9.9041    0.0000 C   0  0  0  0  0  0  0  0  0  0  0  0
  2  1  2  0  0  0  0
  3  2  1  0  0  0  0
  4  3  1  0  0  0  0
  5  4  1  0  0  0  0
  6  5  1  0  0  0  0
  7  6  1  0  0  0  0
  8  7  1  0  0  0  0
  9  8  1  0  0  0  0
 10  9  1  0  0  0  0
 11 10  1  0  0  0  0
 12 11  1  0  0  0  0
 13 12  1  0  0  0  0
 14 13  1  0  0  0  0
 15 14  1  0  0  0  0
 15 16  1  0  0  0  0
 16 17  1  0  0  0  0
 17 18  1  0  0  0  0
 18 19  1  0  0  0  0
 19 20  1  0  0  0  0
 20 21  1  0  0  0  0
M  END
>  <NAME>
1-Heneicosene

>  <INCHIKEY>
JTOGFHAZQVDOAO-UHFFFAOYSA-N

>  <RETENTION INDEX>
SemiStdNP=2091.5

>  <POLYMER>
PE (48)

>  <FORMULA>
C21H42

>  <MW>
294

>  <EXACT MASS>
294.328651

>  <CASNO>
1599684

>  <ID>
30

>  <NUM PEAKS>
48

>  <MASS SPECTRAL PEAKS>
26 6
27 62
29 162
39 80
40 9
41 537
42 134
43 851
44 31
53 38
54 109
55 834
56 493
57 999
58 46
67 140
68 141
69 754
70 474
71 520
72 34
79 15
81 85
82 221
83 970
84 335
85 291
86 22
95 45
96 113
97 870
98 224
99 63
110 59
111 395
112 137
113 29
124 32
125 176
126 73
127 10
138 18
139 51
140 37
141 7
153 22
154 26
168 15

$$$$
1,20-HENEICOSADIENE
  ACD/LABS03252411212D
CAS rn = 23592021, Library ID = 31
 21 20  0  0  0  0  0  0  0  0  1 V2000
    5.7174   -9.9041    0.0000 C   0  0  0  0  0  0  0  0  0  0  0  0
    6.8692   -9.2391    0.0000 C   0  0  0  0  0  0  0  0  0  0  0  0
    8.0210   -9.9041    0.0000 C   0  0  0  0  0  0  0  0  0  0  0  0
    9.1729   -9.2391    0.0000 C   0  0  0  0  0  0  0  0  0  0  0  0
   10.3247   -9.9041    0.0000 C   0  0  0  0  0  0  0  0  0  0  0  0
   11.4765   -9.2391    0.0000 C   0  0  0  0  0  0  0  0  0  0  0  0
   12.6283   -9.9041    0.0000 C   0  0  0  0  0  0  0  0  0  0  0  0
   13.7801   -9.2391    0.0000 C   0  0  0  0  0  0  0  0  0  0  0  0
   14.9319   -9.9041    0.0000 C   0  0  0  0  0  0  0  0  0  0  0  0
   16.0837   -9.2391    0.0000 C   0  0  0  0  0  0  0  0  0  0  0  0
   17.2355   -9.9041    0.0000 C   0  0  0  0  0  0  0  0  0  0  0  0
   18.3874   -9.2391    0.0000 C   0  0  0  0  0  0  0  0  0  0  0  0
   19.5392   -9.9041    0.0000 C   0  0  0  0  0  0  0  0  0  0  0  0
   20.6910   -9.2391    0.0000 C   0  0  0  0  0  0  0  0  0  0  0  0
   21.8428   -9.9041    0.0000 C   0  0  0  0  0  0  0  0  0  0  0  0
   22.9946   -9.2391    0.0000 C   0  0  0  0  0  0  0  0  0  0  0  0
   24.1464   -9.9041    0.0000 C   0  0  0  0  0  0  0  0  0  0  0  0
   25.2982   -9.2391    0.0000 C   0  0  0  0  0  0  0  0  0  0  0  0
   26.4501   -9.9041    0.0000 C   0  0  0  0  0  0  0  0  0  0  0  0
   27.6019   -9.2391    0.0000 C   0  0  0  0  0  0  0  0  0  0  0  0
   28.7537   -9.9041    0.0000 C   0  0  0  0  0  0  0  0  0  0  0  0
  2  1  2  0  0  0  0
  3  2  1  0  0  0  0
  4  3  1  0  0  0  0
  5  4  1  0  0  0  0
  6  5  1  0  0  0  0
  7  6  1  0  0  0  0
  8  7  1  0  0  0  0
  9  8  1  0  0  0  0
 10  9  1  0  0  0  0
 11 10  1  0  0  0  0
 12 11  1  0  0  0  0
 13 12  1  0  0  0  0
 14 13  1  0  0  0  0
 15 14  1  0  0  0  0
 15 16  1  0  0  0  0
 16 17  1  0  0  0  0
 17 18  1  0  0  0  0
 18 19  1  0  0  0  0
 19 20  1  0  0  0  0
 20 21  2  0  0  0  0
M  END
>  <NAME>
1,20-Heneicosadiene

>  <INCHIKEY>
MMBQDNYIMSODBH-UHFFFAOYSA-N

>  <POLYMER>
PE (48)

>  <RETENTION INDEX>
SemiStdNP=2085.1

>  <FORMULA>
C21H40

>  <MW>
292

>  <EXACT MASS>
292.313002

>  <CASNO>
23592021

>  <ID>
31

>  <NUM PEAKS>
43

>  <MASS SPECTRAL PEAKS>
15 13
17 16
27 41
29 146
36 18
39 75
41 547
42 111
43 401
53 41
54 216
55 999
56 265
57 310
66 27
67 377
68 362
69 616
70 254
71 155
78 15
80 30
81 474
82 629
83 575
84 103
85 65
87 10
95 360
96 485
97 346
98 25
99 16
109 205
110 149
111 92
123 88
124 56
125 18
137 34
138 23
163 16
206 12

$$$$
EICOSANE
  -NISTMS-12099911132D 1   1.0         0.0          
CAS rn = 112958, Library ID = 32
 20 19  0  0  0  0  0  0  0  0  0
    0.4061    0.8121    0.0000 C   0  0  0     0  0  0  0  0  0
   -0.3248    0.4061    0.0000 C   0  0  0     0  0  0  0  0  0
    1.0964    0.4061    0.0000 C   0  0  0     0  0  0  0  0  0
   -1.0151    0.8121    0.0000 C   0  0  0     0  0  0  0  0  0
   -1.7054    0.4061    0.0000 C   0  0  0     0  0  0  0  0  0
    1.7866    0.8121    0.0000 C   0  0  0     0  0  0  0  0  0
   -2.4363    0.8121    0.0000 C   0  0  0     0  0  0  0  0  0
    2.5175    0.4061    0.0000 C   0  0  0     0  0  0  0  0  0
   -3.1266    0.4061    0.0000 C   0  0  0     0  0  0  0  0  0
    3.2078    0.8121    0.0000 C   0  0  0     0  0  0  0  0  0
   -3.8169    0.8121    0.0000 C   0  0  0     0  0  0  0  0  0
    3.8981    0.4061    0.0000 C   0  0  0     0  0  0  0  0  0
   -4.5478    0.4061    0.0000 C   0  0  0     0  0  0  0  0  0
    4.6290    0.8121    0.0000 C   0  0  0     0  0  0  0  0  0
   -5.2381    0.8121    0.0000 C   0  0  0     0  0  0  0  0  0
    5.3193    0.4061    0.0000 C   0  0  0     0  0  0  0  0  0
   -5.9284    0.4061    0.0000 C   0  0  0     0  0  0  0  0  0
    6.0096    0.8121    0.0000 C   0  0  0     0  0  0  0  0  0
   -6.6593    0.8121    0.0000 C   0  0  0     0  0  0  0  0  0
    6.6999    0.4061    0.0000 C   0  0  0     0  0  0  0  0  0
  1  2  1  0  0  0  0
  1  3  1  0  0  0  0
  2  4  1  0  0  0  0
  3  6  1  0  0  0  0
  4  5  1  0  0  0  0
  5  7  1  0  0  0  0
  6  8  1  0  0  0  0
  7  9  1  0  0  0  0
  8 10  1  0  0  0  0
  9 11  1  0  0  0  0
 10 12  1  0  0  0  0
 11 13  1  0  0  0  0
 12 14  1  0  0  0  0
 13 15  1  0  0  0  0
 14 16  1  0  0  0  0
 15 17  1  0  0  0  0
 16 18  1  0  0  0  0
 17 19  1  0  0  0  0
 18 20  1  0  0  0  0
>  <NAME>
Eicosane

>  <INCHIKEY>
CBFCDTFDPHXCNY-UHFFFAOYSA-N

>  <RETENTION INDEX>
SemiStdNP=2000

>  <POLYMER>
PE (48)

>  <FORMULA>
C20H42

>  <MW>
282

>  <EXACT MASS>
282.328651

>  <CASNO>
112958

>  <ID>
32

>  <NUM PEAKS>
40

>  <MASS SPECTRAL PEAKS>
21 3
22 8
27 20
29 92
39 19
40 14
41 202
42 55
43 593
44 12
54 13
55 138
56 109
57 999
58 43
67 10
69 70
70 83
71 712
72 39
73 7
82 6
83 52
84 56
85 471
86 34
97 48
98 34
99 138
100 8
111 21
112 24
113 74
125 13
126 16
127 47
140 2
141 23
155 8
169 5

$$$$
1-EICOSENE
  -NISTMS-12099911132D 1   1.0         0.0          
CAS rn = 3452071, Library ID = 33
 20 19  0  0  0  0  0  0  0  0  0
    0.3649    0.7704    0.0000 C   0  0  0     0  0  0  0  0  0
   -0.3649    0.3649    0.0000 C   0  0  0     0  0  0  0  0  0
    1.0543    0.3649    0.0000 C   0  0  0     0  0  0  0  0  0
   -1.0137    0.7704    0.0000 C   0  0  0     0  0  0  0  0  0
   -1.7030    0.3649    0.0000 C   0  0  0     0  0  0  0  0  0
    1.7436    0.7704    0.0000 C   0  0  0     0  0  0  0  0  0
   -2.4329    0.7704    0.0000 C   0  0  0     0  0  0  0  0  0
    2.4734    0.3649    0.0000 C   0  0  0     0  0  0  0  0  0
   -3.1222    0.3649    0.0000 C   0  0  0     0  0  0  0  0  0
    3.1628    0.7704    0.0000 C   0  0  0     0  0  0  0  0  0
   -3.8115    0.7704    0.0000 C   0  0  0     0  0  0  0  0  0
    3.8521    0.3649    0.0000 C   0  0  0     0  0  0  0  0  0
   -4.5414    0.3649    0.0000 C   0  0  0     0  0  0  0  0  0
    4.5819    0.7704    0.0000 C   0  0  0     0  0  0  0  0  0
   -5.2307    0.7704    0.0000 C   0  0  0     0  0  0  0  0  0
    5.2713    0.3649    0.0000 C   0  0  0     0  0  0  0  0  0
   -5.9200    0.3649    0.0000 C   0  0  0     0  0  0  0  0  0
    5.9606    0.8110    0.0000 C   0  0  0     0  0  0  0  0  0
   -6.6499    0.7704    0.0000 C   0  0  0     0  0  0  0  0  0
    6.6904    0.4055    0.0000 C   0  0  0     0  0  0  0  0  0
  1  2  1  0  0  0  0
  1  3  1  0  0  0  0
  2  4  1  0  0  0  0
  3  6  1  0  0  0  0
  4  5  1  0  0  0  0
  5  7  1  0  0  0  0
  6  8  1  0  0  0  0
  7  9  1  0  0  0  0
  8 10  1  0  0  0  0
  9 11  1  0  0  0  0
 10 12  1  0  0  0  0
 11 13  1  0  0  0  0
 12 14  1  0  0  0  0
 13 15  1  0  0  0  0
 14 16  1  0  0  0  0
 15 17  1  0  0  0  0
 16 18  1  0  0  0  0
 17 19  1  0  0  0  0
 18 20  2  0  0  0  0
>  <NAME>
1-Eicosene

>  <INCHIKEY>
VAMFXQBUQXONLZ-UHFFFAOYSA-N

>  <RETENTION INDEX>
SemiStdNP=1991.3

>  <POLYMER>
PE (48)

>  <FORMULA>
C20H40

>  <MW>
280

>  <EXACT MASS>
280.313002

>  <CASNO>
3452071

>  <ID>
33

>  <NUM PEAKS>
51

>  <MASS SPECTRAL PEAKS>
27 62
29 187
34 6
39 76
41 580
42 137
43 878
44 27
53 40
54 120
55 888
56 504
57 999
58 48
67 146
68 140
69 787
70 495
71 492
72 24
75 8
79 14
81 86
82 217
83 954
84 339
85 284
86 14
95 37
96 123
97 850
98 215
99 60
109 11
110 55
111 385
112 131
113 24
124 27
125 163
126 66
127 15
138 15
139 53
140 36
152 8
153 21
154 20
162 8
167 8
168 14

$$$$
1,19-EICOSADIENE
  -NISTMS-12099911132D 1   1.0         0.0          
CAS rn = 14811951, Library ID = 34
 20 19  0  0  0  0  0  0  0  0  0
   -6.9142    0.4091    0.0000 C   0  0  0     0  0  0  0  0  0
   -6.1778    0.7773    0.0000 C   0  0  0     0  0  0  0  0  0
   -0.2864    0.7773    0.0000 C   0  0  0     0  0  0  0  0  0
   -1.0637    0.4091    0.0000 C   0  0  0     0  0  0  0  0  0
    3.2730    0.4091    0.0000 C   0  0  0     0  0  0  0  0  0
    2.5775    0.7773    0.0000 C   0  0  0     0  0  0  0  0  0
    6.9551    0.7773    0.0000 C   0  0  0     0  0  0  0  0  0
    6.2187    0.4091    0.0000 C   0  0  0     0  0  0  0  0  0
   -5.4414    0.4091    0.0000 C   0  0  0     0  0  0  0  0  0
   -4.7049    0.7773    0.0000 C   0  0  0     0  0  0  0  0  0
   -4.0094    0.4500    0.0000 C   0  0  0     0  0  0  0  0  0
   -3.2730    0.7773    0.0000 C   0  0  0     0  0  0  0  0  0
   -2.5366    0.4091    0.0000 C   0  0  0     0  0  0  0  0  0
    0.3682    0.4500    0.0000 C   0  0  0     0  0  0  0  0  0
   -1.8002    0.7773    0.0000 C   0  0  0     0  0  0  0  0  0
    1.1046    0.7773    0.0000 C   0  0  0     0  0  0  0  0  0
    4.0503    0.7773    0.0000 C   0  0  0     0  0  0  0  0  0
    1.8002    0.4091    0.0000 C   0  0  0     0  0  0  0  0  0
    4.7459    0.4500    0.0000 C   0  0  0     0  0  0  0  0  0
    5.4823    0.7773    0.0000 C   0  0  0     0  0  0  0  0  0
  1  2  2  0  0  0  0
  2  9  1  0  0  0  0
  3  4  1  0  0  0  0
  3 14  1  0  0  0  0
  4 15  1  0  0  0  0
  5  6  1  0  0  0  0
  5 17  1  0  0  0  0
  6 18  1  0  0  0  0
  7  8  2  0  0  0  0
  8 20  1  0  0  0  0
  9 10  1  0  0  0  0
 10 11  1  0  0  0  0
 11 12  1  0  0  0  0
 12 13  1  0  0  0  0
 13 15  1  0  0  0  0
 14 16  1  0  0  0  0
 16 18  1  0  0  0  0
 17 19  1  0  0  0  0
 19 20  1  0  0  0  0
>  <NAME>
1,19-Eicosadiene

>  <INCHIKEY>
AWJFCAXSGQLCKK-UHFFFAOYSA-N

>  <RETENTION INDEX>
SemiStdNP=1984.6

>  <POLYMER>
PE (48)

>  <FORMULA>
C20H38

>  <MW>
278

>  <EXACT MASS>
278.297352

>  <CASNO>
14811951

>  <ID>
34

>  <NUM PEAKS>
41

>  <MASS SPECTRAL PEAKS>
22 8
27 38
29 162
33 9
39 83
41 561
42 111
43 369
53 47
54 231
55 999
56 276
57 294
58 8
65 12
66 21
67 394
68 347
69 620
70 282
71 143
79 23
80 18
81 476
82 620
83 526
84 64
85 37
95 366
96 453
97 343
98 41
109 204
110 138
111 98
112 15
123 79
124 53
125 24
137 37
138 32

$$$$
NONADECANE
  -NISTMS-12099911132D 1   1.0         0.0          
CAS rn = 629925, Library ID = 35
 19 18  0  0  0  0  0  0  0  0  0
    0.6898    0.8115    0.0000 C   0  0  0     0  0  0  0  0  0
    0.0000    0.4057    0.0000 C   0  0  0     0  0  0  0  0  0
    1.4201    0.4057    0.0000 C   0  0  0     0  0  0  0  0  0
   -0.6898    0.8115    0.0000 C   0  0  0     0  0  0  0  0  0
   -1.4201    0.4057    0.0000 C   0  0  0     0  0  0  0  0  0
    2.1099    0.8115    0.0000 C   0  0  0     0  0  0  0  0  0
   -2.1099    0.8115    0.0000 C   0  0  0     0  0  0  0  0  0
    2.7997    0.4057    0.0000 C   0  0  0     0  0  0  0  0  0
   -2.7997    0.4057    0.0000 C   0  0  0     0  0  0  0  0  0
    3.5300    0.8115    0.0000 C   0  0  0     0  0  0  0  0  0
   -3.5300    0.8115    0.0000 C   0  0  0     0  0  0  0  0  0
    4.2198    0.4057    0.0000 C   0  0  0     0  0  0  0  0  0
   -4.2198    0.4057    0.0000 C   0  0  0     0  0  0  0  0  0
    4.9095    0.8115    0.0000 C   0  0  0     0  0  0  0  0  0
   -4.9095    0.8115    0.0000 C   0  0  0     0  0  0  0  0  0
    5.6399    0.4057    0.0000 C   0  0  0     0  0  0  0  0  0
   -5.6399    0.4057    0.0000 C   0  0  0     0  0  0  0  0  0
    6.3297    0.8115    0.0000 C   0  0  0     0  0  0  0  0  0
   -6.3297    0.8115    0.0000 C   0  0  0     0  0  0  0  0  0
  1  2  1  0  0  0  0
  1  3  1  0  0  0  0
  2  4  1  0  0  0  0
  3  6  1  0  0  0  0
  4  5  1  0  0  0  0
  5  7  1  0  0  0  0
  6  8  1  0  0  0  0
  7  9  1  0  0  0  0
  8 10  1  0  0  0  0
  9 11  1  0  0  0  0
 10 12  1  0  0  0  0
 11 13  1  0  0  0  0
 12 14  1  0  0  0  0
 13 15  1  0  0  0  0
 14 16  1  0  0  0  0
 15 17  1  0  0  0  0
 16 18  1  0  0  0  0
 17 19  1  0  0  0  0
>  <NAME>
Nonadecane

>  <INCHIKEY>
LQERIDTXQFOHKA-UHFFFAOYSA-N

>  <RETENTION INDEX>
SemiStdNP=1900

>  <POLYMER>
PE (48)

>  <FORMULA>
C19H40

>  <MW>
268

>  <EXACT MASS>
268.313002

>  <CASNO>
629925

>  <ID>
35

>  <NUM PEAKS>
42

>  <MASS SPECTRAL PEAKS>
19 4
27 29
29 101
34 3
39 19
41 191
42 53
43 610
44 19
45 7
51 3
52 7
53 7
54 11
55 114
56 104
57 999
58 45
67 6
69 73
70 89
71 678
72 40
80 3
83 40
84 55
85 449
86 32
97 39
98 35
99 114
100 4
111 23
112 24
113 67
126 8
127 38
141 18
155 10
159 7
168 9
169 7

$$$$
1-NONADECENE
  -NISTMS-12099911132D 1   1.0         0.0          
CAS rn = 18435455, Library ID = 36
 19 18  0  0  0  0  0  0  0  0  0
    3.5259    0.4053    0.0000 C   0  0  0     0  0  0  0  0  0
    4.2149    0.8106    0.0000 C   0  0  0     0  0  0  0  0  0
    2.7964    0.8106    0.0000 C   0  0  0     0  0  0  0  0  0
    4.9444    0.4053    0.0000 C   0  0  0     0  0  0  0  0  0
    2.0669    0.4053    0.0000 C   0  0  0     0  0  0  0  0  0
    5.6739    0.8106    0.0000 C   0  0  0     0  0  0  0  0  0
    6.3628    0.4458    0.0000 C   0  0  0     0  0  0  0  0  0
    1.4185    0.8106    0.0000 C   0  0  0     0  0  0  0  0  0
    0.6890    0.4053    0.0000 C   0  0  0     0  0  0  0  0  0
    0.0000    0.8106    0.0000 C   0  0  0     0  0  0  0  0  0
   -0.7295    0.4053    0.0000 C   0  0  0     0  0  0  0  0  0
   -1.4185    0.8106    0.0000 C   0  0  0     0  0  0  0  0  0
   -2.1074    0.4053    0.0000 C   0  0  0     0  0  0  0  0  0
   -2.8775    0.8106    0.0000 C   0  0  0     0  0  0  0  0  0
   -3.5259    0.4053    0.0000 C   0  0  0     0  0  0  0  0  0
   -4.2149    0.8106    0.0000 C   0  0  0     0  0  0  0  0  0
   -4.9444    0.4053    0.0000 C   0  0  0     0  0  0  0  0  0
   -5.6333    0.8106    0.0000 C   0  0  0     0  0  0  0  0  0
   -6.3223    0.4053    0.0000 C   0  0  0     0  0  0  0  0  0
  1  2  1  0  0  0  0
  1  3  1  0  0  0  0
  2  4  1  0  0  0  0
  3  5  1  0  0  0  0
  4  6  1  0  0  0  0
  5  8  1  0  0  0  0
  6  7  2  0  0  0  0
  8  9  1  0  0  0  0
  9 10  1  0  0  0  0
 10 11  1  0  0  0  0
 11 12  1  0  0  0  0
 12 13  1  0  0  0  0
 13 14  1  0  0  0  0
 14 15  1  0  0  0  0
 15 16  1  0  0  0  0
 16 17  1  0  0  0  0
 17 18  1  0  0  0  0
 18 19  1  0  0  0  0
>  <NAME>
1-Nonadecene

>  <INCHIKEY>
NHLUYCJZUXOUBX-UHFFFAOYSA-N

>  <RETENTION INDEX>
SemiStdNP=1891.2

>  <POLYMER>
PE (48)

>  <FORMULA>
C19H38

>  <MW>
266

>  <EXACT MASS>
266.297352

>  <CASNO>
18435455

>  <ID>
36

>  <NUM PEAKS>
51

>  <MASS SPECTRAL PEAKS>
25 4
27 59
29 204
39 90
40 7
41 618
42 140
43 881
44 30
53 51
54 118
55 875
56 537
57 999
58 53
65 6
66 7
67 161
68 145
69 788
70 528
71 495
72 29
79 12
81 87
82 220
83 950
84 348
85 283
86 17
95 42
96 113
97 811
98 216
99 52
109 18
110 52
111 359
112 129
113 20
117 8
124 21
125 141
126 70
138 3
139 44
140 38
153 23
154 22
167 5
168 13

$$$$
1,18-NONADECADIENE
  ACD/LABS03252411062D
CAS rn = 136561927, Library ID = 37
 19 18  0  0  0  0  0  0  0  0  1 V2000
    6.8692   -8.9066    0.0000 C   0  0  0  0  0  0  0  0  0  0  0  0
    8.0210   -8.2416    0.0000 C   0  0  0  0  0  0  0  0  0  0  0  0
    9.1729   -8.9066    0.0000 C   0  0  0  0  0  0  0  0  0  0  0  0
   10.3247   -8.2416    0.0000 C   0  0  0  0  0  0  0  0  0  0  0  0
   11.4765   -8.9066    0.0000 C   0  0  0  0  0  0  0  0  0  0  0  0
   12.6283   -8.2416    0.0000 C   0  0  0  0  0  0  0  0  0  0  0  0
   13.7801   -8.9066    0.0000 C   0  0  0  0  0  0  0  0  0  0  0  0
   14.9319   -8.2416    0.0000 C   0  0  0  0  0  0  0  0  0  0  0  0
   16.0837   -8.9066    0.0000 C   0  0  0  0  0  0  0  0  0  0  0  0
   17.2355   -8.2416    0.0000 C   0  0  0  0  0  0  0  0  0  0  0  0
   18.3874   -8.9066    0.0000 C   0  0  0  0  0  0  0  0  0  0  0  0
   19.5392   -8.2416    0.0000 C   0  0  0  0  0  0  0  0  0  0  0  0
   20.6910   -8.9066    0.0000 C   0  0  0  0  0  0  0  0  0  0  0  0
   21.8428   -8.2416    0.0000 C   0  0  0  0  0  0  0  0  0  0  0  0
   22.9946   -8.9066    0.0000 C   0  0  0  0  0  0  0  0  0  0  0  0
   24.1464   -8.2416    0.0000 C   0  0  0  0  0  0  0  0  0  0  0  0
   25.2982   -8.9066    0.0000 C   0  0  0  0  0  0  0  0  0  0  0  0
   26.4501   -8.2416    0.0000 C   0  0  0  0  0  0  0  0  0  0  0  0
   27.6019   -8.9066    0.0000 C   0  0  0  0  0  0  0  0  0  0  0  0
  2  1  2  0  0  0  0
  3  2  1  0  0  0  0
  4  3  1  0  0  0  0
  5  4  1  0  0  0  0
  6  5  1  0  0  0  0
  7  6  1  0  0  0  0
  8  7  1  0  0  0  0
  9  8  1  0  0  0  0
 10  9  1  0  0  0  0
 11 10  1  0  0  0  0
 12 11  1  0  0  0  0
 13 12  1  0  0  0  0
 14 13  1  0  0  0  0
 15 14  1  0  0  0  0
 15 16  1  0  0  0  0
 16 17  1  0  0  0  0
 17 18  1  0  0  0  0
 18 19  2  0  0  0  0
M  END
>  <NAME>
1,18-Nonadecadiene

>  <INCHIKEY>
ZICBMHDDLLEGHU-UHFFFAOYSA-N

>  <POLYMER>
PE (48)

>  <RETENTION INDEX>
SemiStdNP=1884.1

>  <FORMULA>
C19H36

>  <MW>
264

>  <EXACT MASS>
264.281702

>  <CASNO>
136561927

>  <ID>
37

>  <NUM PEAKS>
38

>  <MASS SPECTRAL PEAKS>
27 46
29 157
39 94
40 30
41 573
42 111
43 386
53 52
54 242
55 999
56 247
57 316
62 5
66 21
67 396
68 349
69 595
70 228
71 119
72 5
79 13
80 20
81 504
82 600
83 484
84 77
85 48
95 361
96 424
97 314
98 31
109 207
110 126
111 77
123 79
124 46
137 9
138 16

$$$$
OCTADECANE
  -NISTMS-12099911132D 1   1.0         0.0          
CAS rn = 593453, Library ID = 38
 18 17  0  0  0  0  0  0  0  0  0
   -5.9656    0.3652    0.0000 C   0  0  0     0  0  0  0  0  0
   -5.2757    0.7711    0.0000 C   0  0  0     0  0  0  0  0  0
   -4.5452    0.3652    0.0000 C   0  0  0     0  0  0  0  0  0
   -3.8959    0.7711    0.0000 C   0  0  0     0  0  0  0  0  0
   -3.2060    0.3652    0.0000 C   0  0  0     0  0  0  0  0  0
   -2.4755    0.7711    0.0000 C   0  0  0     0  0  0  0  0  0
   -1.7856    0.3652    0.0000 C   0  0  0     0  0  0  0  0  0
   -1.0957    0.7711    0.0000 C   0  0  0     0  0  0  0  0  0
   -0.3652    0.3652    0.0000 C   0  0  0     0  0  0  0  0  0
    0.3247    0.7711    0.0000 C   0  0  0     0  0  0  0  0  0
    1.0146    0.3652    0.0000 C   0  0  0     0  0  0  0  0  0
    1.7450    0.8116    0.0000 C   0  0  0     0  0  0  0  0  0
    2.4349    0.4058    0.0000 C   0  0  0     0  0  0  0  0  0
    3.1248    0.8116    0.0000 C   0  0  0     0  0  0  0  0  0
    3.8553    0.4058    0.0000 C   0  0  0     0  0  0  0  0  0
    4.5452    0.8116    0.0000 C   0  0  0     0  0  0  0  0  0
    5.2351    0.4058    0.0000 C   0  0  0     0  0  0  0  0  0
    5.9656    0.8116    0.0000 C   0  0  0     0  0  0  0  0  0
  1  2  1  0  0  0  0
  2  3  1  0  0  0  0
  3  4  1  0  0  0  0
  4  5  1  0  0  0  0
  5  6  1  0  0  0  0
  6  7  1  0  0  0  0
  7  8  1  0  0  0  0
  8  9  1  0  0  0  0
  9 10  1  0  0  0  0
 10 11  1  0  0  0  0
 11 12  1  0  0  0  0
 12 13  1  0  0  0  0
 13 14  1  0  0  0  0
 14 15  1  0  0  0  0
 15 16  1  0  0  0  0
 16 17  1  0  0  0  0
 17 18  1  0  0  0  0
>  <NAME>
Octadecane

>  <INCHIKEY>
RZJRJXONCZWCBN-UHFFFAOYSA-N

>  <RETENTION INDEX>
SemiStdNP=1800

>  <POLYMER>
PE (48)

>  <FORMULA>
C18H38

>  <MW>
254

>  <EXACT MASS>
254.297351

>  <CASNO>
593453

>  <ID>
38

>  <NUM PEAKS>
30

>  <MASS SPECTRAL PEAKS>
27 31
29 105
39 18
41 203
42 58
43 620
44 19
55 118
56 103
57 999
58 50
69 67
70 88
71 661
72 38
80 4
83 41
84 48
85 431
86 29
97 37
98 29
99 110
111 15
112 17
113 59
126 13
127 33
141 13
155 4

$$$$
1-OCTADECENE
  -NISTMS-12099911132D 1   1.0         0.0          
CAS rn = 112889, Library ID = 39
 18 17  0  0  0  0  0  0  0  0  0
    0.3654    0.7714    0.0000 C   0  0  0     0  0  0  0  0  0
   -0.3654    0.3654    0.0000 C   0  0  0     0  0  0  0  0  0
    1.0556    0.3654    0.0000 C   0  0  0     0  0  0  0  0  0
   -1.0556    0.7714    0.0000 C   0  0  0     0  0  0  0  0  0
   -1.7457    0.3654    0.0000 C   0  0  0     0  0  0  0  0  0
    1.7457    0.7714    0.0000 C   0  0  0     0  0  0  0  0  0
   -2.4765    0.7714    0.0000 C   0  0  0     0  0  0  0  0  0
    2.4765    0.3654    0.0000 C   0  0  0     0  0  0  0  0  0
   -3.1667    0.3654    0.0000 C   0  0  0     0  0  0  0  0  0
    3.1667    0.7714    0.0000 C   0  0  0     0  0  0  0  0  0
   -3.8568    0.7714    0.0000 C   0  0  0     0  0  0  0  0  0
    3.8974    0.3654    0.0000 C   0  0  0     0  0  0  0  0  0
   -4.5876    0.3654    0.0000 C   0  0  0     0  0  0  0  0  0
    4.6282    0.7714    0.0000 C   0  0  0     0  0  0  0  0  0
   -5.2778    0.7714    0.0000 C   0  0  0     0  0  0  0  0  0
    5.3184    0.4060    0.0000 C   0  0  0     0  0  0  0  0  0
   -5.9680    0.3654    0.0000 C   0  0  0     0  0  0  0  0  0
    6.0086    0.8120    0.0000 C   0  0  0     0  0  0  0  0  0
  1  2  1  0  0  0  0
  1  3  1  0  0  0  0
  2  4  1  0  0  0  0
  3  6  1  0  0  0  0
  4  5  1  0  0  0  0
  5  7  1  0  0  0  0
  6  8  1  0  0  0  0
  7  9  1  0  0  0  0
  8 10  1  0  0  0  0
  9 11  1  0  0  0  0
 10 12  1  0  0  0  0
 11 13  1  0  0  0  0
 12 14  1  0  0  0  0
 13 15  1  0  0  0  0
 14 16  1  0  0  0  0
 15 17  1  0  0  0  0
 16 18  2  0  0  0  0
>  <NAME>
1-Octadecene

>  <INCHIKEY>
CCCMONHAUSKTEQ-UHFFFAOYSA-N

>  <RETENTION INDEX>
SemiStdNP=1791

>  <POLYMER>
PE (48)

>  <FORMULA>
C18H36

>  <MW>
252

>  <EXACT MASS>
252.281701

>  <CASNO>
112889

>  <ID>
39

>  <NUM PEAKS>
49

>  <MASS SPECTRAL PEAKS>
27 72
29 214
38 5
39 98
40 8
41 666
42 150
43 907
44 31
53 48
54 121
55 940
56 566
57 999
58 45
65 4
66 10
67 152
68 148
69 791
70 553
71 504
72 25
79 21
81 77
82 211
83 934
84 373
85 271
86 16
95 30
96 102
97 771
98 219
99 43
109 15
110 46
111 341
112 120
113 5
124 18
125 126
126 68
138 9
139 32
140 35
153 8
154 16
168 7

$$$$
1,17-OCTADECADIENE
  ACD/LABS03252410502D
CAS rn = 13560935, Library ID = 40
 18 17  0  0  0  0  0  0  0  0  1 V2000
    6.8692   -8.9066    0.0000 C   0  0  0  0  0  0  0  0  0  0  0  0
    8.0210   -8.2416    0.0000 C   0  0  0  0  0  0  0  0  0  0  0  0
    9.1729   -8.9066    0.0000 C   0  0  0  0  0  0  0  0  0  0  0  0
   10.3247   -8.2416    0.0000 C   0  0  0  0  0  0  0  0  0  0  0  0
   11.4765   -8.9066    0.0000 C   0  0  0  0  0  0  0  0  0  0  0  0
   12.6283   -8.2416    0.0000 C   0  0  0  0  0  0  0  0  0  0  0  0
   13.7801   -8.9066    0.0000 C   0  0  0  0  0  0  0  0  0  0  0  0
   14.9319   -8.2416    0.0000 C   0  0  0  0  0  0  0  0  0  0  0  0
   16.0837   -8.9066    0.0000 C   0  0  0  0  0  0  0  0  0  0  0  0
   17.2355   -8.2416    0.0000 C   0  0  0  0  0  0  0  0  0  0  0  0
   18.3874   -8.9066    0.0000 C   0  0  0  0  0  0  0  0  0  0  0  0
   19.5392   -8.2416    0.0000 C   0  0  0  0  0  0  0  0  0  0  0  0
   20.6910   -8.9066    0.0000 C   0  0  0  0  0  0  0  0  0  0  0  0
   21.8428   -8.2416    0.0000 C   0  0  0  0  0  0  0  0  0  0  0  0
   22.9946   -8.9066    0.0000 C   0  0  0  0  0  0  0  0  0  0  0  0
   24.1464   -8.2416    0.0000 C   0  0  0  0  0  0  0  0  0  0  0  0
   25.2982   -8.9066    0.0000 C   0  0  0  0  0  0  0  0  0  0  0  0
   26.4501   -8.2416    0.0000 C   0  0  0  0  0  0  0  0  0  0  0  0
  2  1  2  0  0  0  0
  3  2  1  0  0  0  0
  4  3  1  0  0  0  0
  5  4  1  0  0  0  0
  6  5  1  0  0  0  0
  7  6  1  0  0  0  0
  8  7  1  0  0  0  0
  9  8  1  0  0  0  0
 10  9  1  0  0  0  0
 11 10  1  0  0  0  0
 12 11  1  0  0  0  0
 13 12  1  0  0  0  0
 14 13  1  0  0  0  0
 15 14  1  0  0  0  0
 15 16  1  0  0  0  0
 16 17  1  0  0  0  0
 17 18  2  0  0  0  0
M  END
>  <NAME>
1,17-Octadecadiene

>  <INCHIKEY>
GUYLTGCUWGGXHD-UHFFFAOYSA-N

>  <POLYMER>
PE (48)

>  <RETENTION INDEX>
SemiStdNP=1783.7

>  <FORMULA>
C18H34

>  <MW>
250

>  <EXACT MASS>
250.266051

>  <CASNO>
13560935

>  <ID>
40

>  <NUM PEAKS>
36

>  <MASS SPECTRAL PEAKS>
27 46
29 154
39 97
40 13
41 582
42 99
43 340
47 14
53 55
54 279
55 999
56 227
57 240
66 18
67 396
68 338
69 562
70 247
71 129
79 14
81 466
82 564
83 449
84 43
85 41
95 352
96 391
97 269
98 28
109 187
110 103
111 57
123 61
124 40
137 13
138 18

$$$$
HEPTADECANE
  -NISTMS-12099911132D 1   1.0         0.0          
CAS rn = 629787, Library ID = 41
 17 16  0  0  0  0  0  0  0  0  0
    0.7310    0.8122    0.0000 C   0  0  0     0  0  0  0  0  0
    0.0406    0.4061    0.0000 C   0  0  0     0  0  0  0  0  0
    1.4620    0.4061    0.0000 C   0  0  0     0  0  0  0  0  0
   -0.6498    0.8122    0.0000 C   0  0  0     0  0  0  0  0  0
   -1.3807    0.4061    0.0000 C   0  0  0     0  0  0  0  0  0
    2.1523    0.8122    0.0000 C   0  0  0     0  0  0  0  0  0
   -2.0711    0.8122    0.0000 C   0  0  0     0  0  0  0  0  0
    2.8427    0.4061    0.0000 C   0  0  0     0  0  0  0  0  0
   -2.7615    0.4061    0.0000 C   0  0  0     0  0  0  0  0  0
    3.5737    0.8122    0.0000 C   0  0  0     0  0  0  0  0  0
   -3.4924    0.8122    0.0000 C   0  0  0     0  0  0  0  0  0
    4.2234    0.4061    0.0000 C   0  0  0     0  0  0  0  0  0
   -4.1828    0.4061    0.0000 C   0  0  0     0  0  0  0  0  0
    4.9138    0.8122    0.0000 C   0  0  0     0  0  0  0  0  0
   -4.8732    0.8122    0.0000 C   0  0  0     0  0  0  0  0  0
    5.6448    0.4061    0.0000 C   0  0  0     0  0  0  0  0  0
   -5.6041    0.4061    0.0000 C   0  0  0     0  0  0  0  0  0
  1  2  1  0  0  0  0
  1  3  1  0  0  0  0
  2  4  1  0  0  0  0
  3  6  1  0  0  0  0
  4  5  1  0  0  0  0
  5  7  1  0  0  0  0
  6  8  1  0  0  0  0
  7  9  1  0  0  0  0
  8 10  1  0  0  0  0
  9 11  1  0  0  0  0
 10 12  1  0  0  0  0
 11 13  1  0  0  0  0
 12 14  1  0  0  0  0
 13 15  1  0  0  0  0
 14 16  1  0  0  0  0
 15 17  1  0  0  0  0
>  <NAME>
Heptadecane

>  <INCHIKEY>
NDJKXXJCMXVBJW-UHFFFAOYSA-N

>  <RETENTION INDEX>
SemiStdNP=1700

>  <POLYMER>
PE (48)

>  <FORMULA>
C17H36

>  <MW>
240

>  <EXACT MASS>
240.281701

>  <CASNO>
629787

>  <ID>
41

>  <NUM PEAKS>
35

>  <MASS SPECTRAL PEAKS>
27 36
29 127
39 28
41 229
42 70
43 683
44 17
53 3
54 16
55 141
56 114
57 999
58 50
67 13
69 76
70 95
71 665
72 38
82 11
83 60
84 62
85 432
86 34
96 4
97 44
98 37
99 100
111 16
112 26
113 53
125 7
126 14
127 31
140 9
141 10

$$$$
1-HEPTADECENE
  -NISTMS-12099911132D 1   1.0         0.0          
CAS rn = 6765395, Library ID = 42
 17 16  0  0  0  0  0  0  0  0  0
    0.7310    0.8122    0.0000 C   0  0  0     0  0  0  0  0  0
    0.0406    0.4061    0.0000 C   0  0  0     0  0  0  0  0  0
    1.4620    0.4061    0.0000 C   0  0  0     0  0  0  0  0  0
   -0.6498    0.8122    0.0000 C   0  0  0     0  0  0  0  0  0
   -1.3807    0.4061    0.0000 C   0  0  0     0  0  0  0  0  0
    2.1523    0.8122    0.0000 C   0  0  0     0  0  0  0  0  0
   -2.0711    0.8122    0.0000 C   0  0  0     0  0  0  0  0  0
    2.8427    0.4061    0.0000 C   0  0  0     0  0  0  0  0  0
   -2.7615    0.4061    0.0000 C   0  0  0     0  0  0  0  0  0
    3.5737    0.8122    0.0000 C   0  0  0     0  0  0  0  0  0
   -3.4924    0.8122    0.0000 C   0  0  0     0  0  0  0  0  0
    4.2234    0.4061    0.0000 C   0  0  0     0  0  0  0  0  0
   -4.1828    0.4061    0.0000 C   0  0  0     0  0  0  0  0  0
    4.9138    0.8122    0.0000 C   0  0  0     0  0  0  0  0  0
   -4.8732    0.8122    0.0000 C   0  0  0     0  0  0  0  0  0
    5.6448    0.4061    0.0000 C   0  0  0     0  0  0  0  0  0
   -5.6041    0.4061    0.0000 C   0  0  0     0  0  0  0  0  0
  1  2  1  0  0  0  0
  1  3  1  0  0  0  0
  2  4  1  0  0  0  0
  3  6  1  0  0  0  0
  4  5  1  0  0  0  0
  5  7  1  0  0  0  0
  6  8  1  0  0  0  0
  7  9  1  0  0  0  0
  8 10  1  0  0  0  0
  9 11  1  0  0  0  0
 10 12  1  0  0  0  0
 11 13  1  0  0  0  0
 12 14  1  0  0  0  0
 13 15  1  0  0  0  0
 14 16  1  0  0  0  0
 15 17  2  0  0  0  0
>  <NAME>
1-Heptadecene

>  <INCHIKEY>
ADOBXTDBFNCOBN-UHFFFAOYSA-N

>  <RETENTION INDEX>
SemiStdNP=1690.8

>  <POLYMER>
PE (48)

>  <FORMULA>
C17H34

>  <MW>
238

>  <EXACT MASS>
238.266051

>  <CASNO>
6765395

>  <ID>
42

>  <NUM PEAKS>
48

>  <MASS SPECTRAL PEAKS>
25 5
27 83
29 243
34 6
39 113
40 17
41 705
42 170
43 973
44 33
53 62
54 128
55 964
56 623
57 999
58 41
65 2
67 168
68 148
69 827
70 598
71 438
72 26
79 14
81 95
82 225
83 938
84 386
85 237
86 8
95 34
96 106
97 776
98 219
99 34
109 3
110 44
111 316
112 120
113 11
124 15
125 115
126 64
138 8
139 20
140 26
154 25
169 9

$$$$
1,16-HEPTADECADIENE
  ACD/LABS03252410502D
Library ID = 43
 17 16  0  0  0  0  0  0  0  0  1 V2000
    7.4451   -8.2416    0.0000 C   0  0  0  0  0  0  0  0  0  0  0  0
    8.5969   -7.5766    0.0000 C   0  0  0  0  0  0  0  0  0  0  0  0
    9.7488   -8.2416    0.0000 C   0  0  0  0  0  0  0  0  0  0  0  0
   10.9006   -7.5766    0.0000 C   0  0  0  0  0  0  0  0  0  0  0  0
   12.0524   -8.2416    0.0000 C   0  0  0  0  0  0  0  0  0  0  0  0
   13.2042   -7.5766    0.0000 C   0  0  0  0  0  0  0  0  0  0  0  0
   14.3560   -8.2416    0.0000 C   0  0  0  0  0  0  0  0  0  0  0  0
   15.5078   -7.5766    0.0000 C   0  0  0  0  0  0  0  0  0  0  0  0
   16.6596   -8.2416    0.0000 C   0  0  0  0  0  0  0  0  0  0  0  0
   17.8115   -7.5766    0.0000 C   0  0  0  0  0  0  0  0  0  0  0  0
   18.9633   -8.2416    0.0000 C   0  0  0  0  0  0  0  0  0  0  0  0
   20.1151   -7.5766    0.0000 C   0  0  0  0  0  0  0  0  0  0  0  0
   21.2669   -8.2416    0.0000 C   0  0  0  0  0  0  0  0  0  0  0  0
   22.4187   -7.5766    0.0000 C   0  0  0  0  0  0  0  0  0  0  0  0
   23.5705   -8.2416    0.0000 C   0  0  0  0  0  0  0  0  0  0  0  0
   24.7223   -7.5766    0.0000 C   0  0  0  0  0  0  0  0  0  0  0  0
   25.8741   -8.2416    0.0000 C   0  0  0  0  0  0  0  0  0  0  0  0
  2  1  2  0  0  0  0
  3  2  1  0  0  0  0
  4  3  1  0  0  0  0
  5  4  1  0  0  0  0
  6  5  1  0  0  0  0
  7  6  1  0  0  0  0
  8  7  1  0  0  0  0
  9  8  1  0  0  0  0
 10  9  1  0  0  0  0
 11 10  1  0  0  0  0
 12 11  1  0  0  0  0
 13 12  1  0  0  0  0
 14 13  1  0  0  0  0
 15 14  1  0  0  0  0
 15 16  1  0  0  0  0
 16 17  2  0  0  0  0
M  END
>  <NAME>
1,16-Heptadecadiene

>  <INCHIKEY>
LGYMYODKHKZIEU-UHFFFAOYSA-N

>  <POLYMER>
PE (48)

>  <RETENTION INDEX>
SemiStdNP=1683.3

>  <FORMULA>
C17H32

>  <MW>
236

>  <EXACT MASS>
236.2504015

>  <ID>
43

>  <NUM PEAKS>
40

>  <MASS SPECTRAL PEAKS>
26 13
27 50
29 170
34 10
39 116
40 13
41 612
42 103
43 340
53 60
54 291
55 999
56 231
57 237
66 33
67 434
68 329
69 558
70 217
71 94
79 18
80 19
81 503
82 535
83 414
84 52
85 26
90 11
95 364
96 362
97 244
98 15
109 187
110 118
111 54
123 58
124 40
132 13
137 17
155 10

$$$$
1,15-HEXADECADIENE
  -NISTMS-12099911132D 1   1.0         0.0          
CAS rn = 21964512, Library ID = 44
 16 15  0  0  0  0  0  0  0  0  0
   -4.8193    0.4493    0.0000 C   0  0  0     0  0  0  0  0  0
   -5.5544    0.7760    0.0000 C   0  0  0     0  0  0  0  0  0
   -4.0841    0.7760    0.0000 C   0  0  0     0  0  0  0  0  0
   -3.3081    0.4493    0.0000 C   0  0  0     0  0  0  0  0  0
   -2.5730    0.7760    0.0000 C   0  0  0     0  0  0  0  0  0
   -1.8379    0.4493    0.0000 C   0  0  0     0  0  0  0  0  0
   -1.0619    0.7760    0.0000 C   0  0  0     0  0  0  0  0  0
   -0.3267    0.4493    0.0000 C   0  0  0     0  0  0  0  0  0
    0.3676    0.7760    0.0000 C   0  0  0     0  0  0  0  0  0
    1.1027    0.4493    0.0000 C   0  0  0     0  0  0  0  0  0
    1.8379    0.7760    0.0000 C   0  0  0     0  0  0  0  0  0
    2.6138    0.4493    0.0000 C   0  0  0     0  0  0  0  0  0
    3.3490    0.7760    0.0000 C   0  0  0     0  0  0  0  0  0
    4.1250    0.4493    0.0000 C   0  0  0     0  0  0  0  0  0
    4.8601    0.7760    0.0000 C   0  0  0     0  0  0  0  0  0
    5.5953    0.4493    0.0000 C   0  0  0     0  0  0  0  0  0
  1  2  2  0  0  0  0
  1  3  1  0  0  0  0
  3  4  1  0  0  0  0
  4  5  1  0  0  0  0
  5  6  1  0  0  0  0
  6  7  1  0  0  0  0
  7  8  1  0  0  0  0
  8  9  1  0  0  0  0
  9 10  1  0  0  0  0
 10 11  1  0  0  0  0
 11 12  1  0  0  0  0
 12 13  1  0  0  0  0
 13 14  1  0  0  0  0
 14 15  1  0  0  0  0
 15 16  2  0  0  0  0
>  <NAME>
1,15-Hexadecadiene

>  <INCHIKEY>
JEJVUMPKJVMOEZ-UHFFFAOYSA-N

>  <RETENTION INDEX>
SemiStdNP=1583

>  <POLYMER>
PE (48)

>  <FORMULA>
C16H30

>  <MW>
222

>  <EXACT MASS>
222.234751

>  <CASNO>
21964512

>  <ID>
44

>  <NUM PEAKS>
35

>  <MASS SPECTRAL PEAKS>
27 60
29 185
39 125
41 641
42 98
43 324
46 11
52 8
53 66
54 322
55 999
56 210
57 233
66 20
67 451
68 335
69 523
70 218
71 84
74 7
79 27
81 496
82 517
83 370
84 46
85 18
95 344
96 351
97 214
98 31
109 171
110 128
111 36
123 53
124 31

$$$$
1,14-PENTADECADIENE
  ACD/LABS03252409492D
CAS rn = 21964501, Library ID = 45
 15 14  0  0  0  0  0  0  0  0  1 V2000
    8.0210   -7.5766    0.0000 C   0  0  0  0  0  0  0  0  0  0  0  0
    9.1729   -6.9116    0.0000 C   0  0  0  0  0  0  0  0  0  0  0  0
   10.3247   -7.5766    0.0000 C   0  0  0  0  0  0  0  0  0  0  0  0
   11.4765   -6.9116    0.0000 C   0  0  0  0  0  0  0  0  0  0  0  0
   12.6283   -7.5766    0.0000 C   0  0  0  0  0  0  0  0  0  0  0  0
   13.7801   -6.9116    0.0000 C   0  0  0  0  0  0  0  0  0  0  0  0
   14.9319   -7.5766    0.0000 C   0  0  0  0  0  0  0  0  0  0  0  0
   16.0837   -6.9116    0.0000 C   0  0  0  0  0  0  0  0  0  0  0  0
   17.2355   -7.5766    0.0000 C   0  0  0  0  0  0  0  0  0  0  0  0
   18.3874   -6.9116    0.0000 C   0  0  0  0  0  0  0  0  0  0  0  0
   19.5392   -7.5766    0.0000 C   0  0  0  0  0  0  0  0  0  0  0  0
   20.6910   -6.9116    0.0000 C   0  0  0  0  0  0  0  0  0  0  0  0
   21.8428   -7.5766    0.0000 C   0  0  0  0  0  0  0  0  0  0  0  0
   22.9946   -6.9116    0.0000 C   0  0  0  0  0  0  0  0  0  0  0  0
   24.1464   -7.5766    0.0000 C   0  0  0  0  0  0  0  0  0  0  0  0
  2  1  2  0  0  0  0
  3  2  1  0  0  0  0
  4  3  1  0  0  0  0
  5  4  1  0  0  0  0
  6  5  1  0  0  0  0
  7  6  1  0  0  0  0
  8  7  1  0  0  0  0
  9  8  1  0  0  0  0
 10  9  1  0  0  0  0
 11 10  1  0  0  0  0
 12 11  1  0  0  0  0
 13 12  1  0  0  0  0
 14 13  1  0  0  0  0
 15 14  2  0  0  0  0
M  END
>  <NAME>
1,14-Pentadecadiene

>  <INCHIKEY>
CXFSMVPFLZVLLK-UHFFFAOYSA-N

>  <POLYMER>
PE (48)

>  <RETENTION INDEX>
SemiStdNP=1482.7

>  <FORMULA>
C15H28

>  <MW>
208

>  <EXACT MASS>
208.219101

>  <CASNO>
21964501

>  <ID>
45

>  <NUM PEAKS>
30

>  <MASS SPECTRAL PEAKS>
20 16
27 57
29 173
39 126
41 628
42 103
43 274
53 71
54 365
55 999
56 175
57 155
65 18
67 492
68 340
69 488
70 172
71 28
79 25
81 514
82 485
83 304
84 41
95 324
96 315
97 136
109 169
110 94
123 47
124 27

$$$$
1,12-TRIDECADIENE
  -NISTMS-12099911132D 1   1.0         0.0          
CAS rn = 21964487, Library ID = 46
 13 12  0  0  0  0  0  0  0  0  0
    0.7314    0.7720    0.0000 C   0  0  0     0  0  0  0  0  0
    0.0406    0.3657    0.0000 C   0  0  0     0  0  0  0  0  0
    1.4628    0.3657    0.0000 C   0  0  0     0  0  0  0  0  0
   -0.6501    0.7720    0.0000 C   0  0  0     0  0  0  0  0  0
   -1.3816    0.3657    0.0000 C   0  0  0     0  0  0  0  0  0
    2.1536    0.7720    0.0000 C   0  0  0     0  0  0  0  0  0
   -2.0723    0.7720    0.0000 C   0  0  0     0  0  0  0  0  0
    2.8038    0.3657    0.0000 C   0  0  0     0  0  0  0  0  0
   -2.7631    0.3657    0.0000 C   0  0  0     0  0  0  0  0  0
    3.5352    0.8127    0.0000 C   0  0  0     0  0  0  0  0  0
   -3.4945    0.7720    0.0000 C   0  0  0     0  0  0  0  0  0
    4.2260    0.4063    0.0000 C   0  0  0     0  0  0  0  0  0
   -4.1853    0.3657    0.0000 C   0  0  0     0  0  0  0  0  0
  1  2  1  0  0  0  0
  1  3  1  0  0  0  0
  2  4  1  0  0  0  0
  3  6  1  0  0  0  0
  4  5  1  0  0  0  0
  5  7  1  0  0  0  0
  6  8  1  0  0  0  0
  7  9  1  0  0  0  0
  8 10  1  0  0  0  0
  9 11  1  0  0  0  0
 10 12  2  0  0  0  0
 11 13  2  0  0  0  0
>  <NAME>
1,12-Tridecadiene

>  <INCHIKEY>
BPHFKBMQSYYNGQ-UHFFFAOYSA-N

>  <RETENTION INDEX>
SemiStdNP=1282

>  <POLYMER>
PE (48)

>  <FORMULA>
C13H24

>  <MW>
180

>  <EXACT MASS>
180.1878

>  <CASNO>
21964487

>  <ID>
46

>  <NUM PEAKS>
29

>  <MASS SPECTRAL PEAKS>
27 113
29 185
33 6
39 194
40 14
41 682
42 87
43 217
47 16
53 82
54 463
55 999
57 66
66 28
67 556
68 333
69 379
79 33
81 515
82 400
83 212
84 33
95 282
96 249
97 105
103 17
109 152
110 71
123 17

$$$$
1,13-TETRADECADIENE
  -NISTMS-12099911132D 1   1.0         0.0          
CAS rn = 21964498, Library ID = 47
 14 13  0  0  0  0  0  0  0  0  0
    1.8344    0.4076    0.0000 C   0  0  0     0  0  0  0  0  0
    2.5274    0.7745    0.0000 C   0  0  0     0  0  0  0  0  0
   -1.0599    0.4076    0.0000 C   0  0  0     0  0  0  0  0  0
   -0.3261    0.7745    0.0000 C   0  0  0     0  0  0  0  0  0
   -3.9541    0.4076    0.0000 C   0  0  0     0  0  0  0  0  0
   -3.2611    0.7745    0.0000 C   0  0  0     0  0  0  0  0  0
    1.1006    0.7745    0.0000 C   0  0  0     0  0  0  0  0  0
    3.2611    0.4076    0.0000 C   0  0  0     0  0  0  0  0  0
    0.3669    0.4076    0.0000 C   0  0  0     0  0  0  0  0  0
    3.9949    0.7745    0.0000 C   0  0  0     0  0  0  0  0  0
    4.7287    0.4076    0.0000 C   0  0  0     0  0  0  0  0  0
   -1.7936    0.7745    0.0000 C   0  0  0     0  0  0  0  0  0
   -2.5274    0.4076    0.0000 C   0  0  0     0  0  0  0  0  0
   -4.6879    0.7745    0.0000 C   0  0  0     0  0  0  0  0  0
  1  2  1  0  0  0  0
  1  7  1  0  0  0  0
  2  8  1  0  0  0  0
  3  4  1  0  0  0  0
  3 12  1  0  0  0  0
  4  9  1  0  0  0  0
  5  6  1  0  0  0  0
  5 14  2  0  0  0  0
  6 13  1  0  0  0  0
  7  9  1  0  0  0  0
  8 10  1  0  0  0  0
 10 11  2  0  0  0  0
 12 13  1  0  0  0  0
>  <NAME>
1,13-Tetradecadiene

>  <INCHIKEY>
XMRSTLBCBDIKFI-UHFFFAOYSA-N

>  <RETENTION INDEX>
SemiStdNP=1382.3

>  <POLYMER>
PE (48)

>  <FORMULA>
C14H26

>  <MW>
194

>  <EXACT MASS>
194.203451

>  <CASNO>
21964498

>  <ID>
47

>  <NUM PEAKS>
30

>  <MASS SPECTRAL PEAKS>
21 14
27 69
29 179
39 160
41 703
42 110
43 269
53 82
54 424
55 999
56 149
57 137
66 37
67 556
68 348
69 461
70 160
71 32
79 35
80 14
81 522
82 506
83 282
84 34
95 345
96 299
97 115
109 162
110 63
123 34

$$$$
1,11-DODECADIENE
  -NISTMS-12099911132D 1   1.0         0.0          
CAS rn = 5876879, Library ID = 48
 12 11  0  0  0  0  0  0  0  0  0
    1.1025    0.4083    0.0000 C   0  0  0     0  0  0  0  0  0
    1.7967    0.7759    0.0000 C   0  0  0     0  0  0  0  0  0
   -1.7967    0.4083    0.0000 C   0  0  0     0  0  0  0  0  0
   -1.1025    0.7759    0.0000 C   0  0  0     0  0  0  0  0  0
    0.3267    0.7759    0.0000 C   0  0  0     0  0  0  0  0  0
    2.5318    0.4083    0.0000 C   0  0  0     0  0  0  0  0  0
   -0.3267    0.4083    0.0000 C   0  0  0     0  0  0  0  0  0
    3.2668    0.7759    0.0000 C   0  0  0     0  0  0  0  0  0
    4.0018    0.4083    0.0000 C   0  0  0     0  0  0  0  0  0
   -2.5318    0.7759    0.0000 C   0  0  0     0  0  0  0  0  0
   -3.2668    0.4083    0.0000 C   0  0  0     0  0  0  0  0  0
   -3.9610    0.7759    0.0000 C   0  0  0     0  0  0  0  0  0
  1  2  1  0  0  0  0
  1  5  1  0  0  0  0
  2  6  1  0  0  0  0
  3  4  1  0  0  0  0
  3 10  1  0  0  0  0
  4  7  1  0  0  0  0
  5  7  1  0  0  0  0
  6  8  1  0  0  0  0
  8  9  2  0  0  0  0
 10 11  1  0  0  0  0
 11 12  2  0  0  0  0
>  <NAME>
1,11-Dodecadiene

>  <INCHIKEY>
IYPLTVKTLDQUGG-UHFFFAOYSA-N

>  <RETENTION INDEX>
SemiStdNP=1181.7

>  <POLYMER>
PE (48)

>  <FORMULA>
C12H22

>  <MW>
166

>  <EXACT MASS>
166.172151

>  <CASNO>
5876879

>  <ID>
48

>  <NUM PEAKS>
25

>  <MASS SPECTRAL PEAKS>
27 104
29 189
39 257
41 766
42 58
43 159
44 16
51 36
53 78
54 633
55 999
57 54
67 694
68 407
69 419
81 573
82 416
83 213
95 334
96 268
97 59
109 127
110 21
130 11
145 26

$$$$
1,10-UNDECADIENE
  -NISTMS-12099911132D 1   1.0         0.0          
CAS rn = 13688670, Library ID = 49
 11 10  0  0  0  0  0  0  0  0  0
    0.7159    0.3977    0.0000 C   0  0  0     0  0  0  0  0  0
    1.4317    0.7954    0.0000 C   0  0  0     0  0  0  0  0  0
   -2.1078    0.3977    0.0000 C   0  0  0     0  0  0  0  0  0
   -1.3919    0.7954    0.0000 C   0  0  0     0  0  0  0  0  0
    0.0000    0.7954    0.0000 C   0  0  0     0  0  0  0  0  0
    2.1078    0.3977    0.0000 C   0  0  0     0  0  0  0  0  0
   -0.6761    0.3977    0.0000 C   0  0  0     0  0  0  0  0  0
    2.8236    0.7954    0.0000 C   0  0  0     0  0  0  0  0  0
    3.5395    0.3977    0.0000 C   0  0  0     0  0  0  0  0  0
   -2.8236    0.7954    0.0000 C   0  0  0     0  0  0  0  0  0
   -3.5395    0.3977    0.0000 C   0  0  0     0  0  0  0  0  0
  1  2  1  0  0  0  0
  1  5  1  0  0  0  0
  2  6  1  0  0  0  0
  3  4  1  0  0  0  0
  3 10  1  0  0  0  0
  4  7  1  0  0  0  0
  5  7  1  0  0  0  0
  6  8  1  0  0  0  0
  8  9  2  0  0  0  0
 10 11  2  0  0  0  0
>  <NAME>
1,10-Undecadiene

>  <INCHIKEY>
VOSLXTGMYNYCPW-UHFFFAOYSA-N

>  <RETENTION INDEX>
SemiStdNP=1081.2

>  <POLYMER>
PE (48)

>  <FORMULA>
C11H20

>  <MW>
152

>  <EXACT MASS>
152.156501

>  <CASNO>
13688670

>  <ID>
49

>  <NUM PEAKS>
24

>  <MASS SPECTRAL PEAKS>
23 35
27 138
29 221
39 291
41 999
42 64
43 122
44 23
53 127
54 715
55 886
67 753
68 410
69 559
78 35
79 23
81 562
82 495
83 69
95 317
96 162
109 91
127 23
133 34

$$$$
HEXADECANE
  -NISTMS-12099911132D 1   1.0         0.0          
CAS rn = 544763, Library ID = 50
 16 15  0  0  0  0  0  0  0  0  0
    0.3652    0.8115    0.0000 C   0  0  0     0  0  0  0  0  0
   -0.3652    0.4057    0.0000 C   0  0  0     0  0  0  0  0  0
    1.0549    0.4057    0.0000 C   0  0  0     0  0  0  0  0  0
   -1.0549    0.8115    0.0000 C   0  0  0     0  0  0  0  0  0
   -1.7447    0.4057    0.0000 C   0  0  0     0  0  0  0  0  0
    1.7447    0.8115    0.0000 C   0  0  0     0  0  0  0  0  0
   -2.4751    0.8115    0.0000 C   0  0  0     0  0  0  0  0  0
    2.4751    0.4057    0.0000 C   0  0  0     0  0  0  0  0  0
   -3.1648    0.4057    0.0000 C   0  0  0     0  0  0  0  0  0
    3.1648    0.8115    0.0000 C   0  0  0     0  0  0  0  0  0
   -3.8546    0.8115    0.0000 C   0  0  0     0  0  0  0  0  0
    3.8546    0.4057    0.0000 C   0  0  0     0  0  0  0  0  0
   -4.5849    0.4057    0.0000 C   0  0  0     0  0  0  0  0  0
    4.5849    0.8115    0.0000 C   0  0  0     0  0  0  0  0  0
   -5.2747    0.8115    0.0000 C   0  0  0     0  0  0  0  0  0
    5.2747    0.4057    0.0000 C   0  0  0     0  0  0  0  0  0
  1  2  1  0  0  0  0
  1  3  1  0  0  0  0
  2  4  1  0  0  0  0
  3  6  1  0  0  0  0
  4  5  1  0  0  0  0
  5  7  1  0  0  0  0
  6  8  1  0  0  0  0
  7  9  1  0  0  0  0
  8 10  1  0  0  0  0
  9 11  1  0  0  0  0
 10 12  1  0  0  0  0
 11 13  1  0  0  0  0
 12 14  1  0  0  0  0
 13 15  1  0  0  0  0
 14 16  1  0  0  0  0
>  <NAME>
Hexadecane

>  <INCHIKEY>
DCAYPVUWAIABOU-UHFFFAOYSA-N

>  <RETENTION INDEX>
SemiStdNP=1600

>  <POLYMER>
PE (48)

>  <FORMULA>
C16H34

>  <MW>
226

>  <EXACT MASS>
226.266051

>  <CASNO>
544763

>  <ID>
50

>  <NUM PEAKS>
34

>  <MASS SPECTRAL PEAKS>
27 36
29 115
39 29
41 230
42 66
43 670
44 23
53 10
55 134
56 106
57 999
58 46
67 10
69 63
70 88
71 637
72 36
77 2
83 37
84 54
85 402
86 26
96 5
97 25
98 33
99 91
111 14
112 19
113 48
126 15
127 18
136 7
140 12
141 12

$$$$
1-HEXADECENE
  -NISTMS-12099911132D 1   1.0         0.0          
CAS rn = 629732, Library ID = 51
 16 15  0  0  0  0  0  0  0  0  0
   -5.2403    0.3656    0.0000 C   0  0  0     0  0  0  0  0  0
   -4.5497    0.7718    0.0000 C   0  0  0     0  0  0  0  0  0
   -3.8997    0.3656    0.0000 C   0  0  0     0  0  0  0  0  0
   -3.1685    0.8124    0.0000 C   0  0  0     0  0  0  0  0  0
   -2.4780    0.4062    0.0000 C   0  0  0     0  0  0  0  0  0
   -1.7874    0.8124    0.0000 C   0  0  0     0  0  0  0  0  0
   -1.0562    0.4062    0.0000 C   0  0  0     0  0  0  0  0  0
   -0.3250    0.8124    0.0000 C   0  0  0     0  0  0  0  0  0
    0.3656    0.4062    0.0000 C   0  0  0     0  0  0  0  0  0
    1.0562    0.8124    0.0000 C   0  0  0     0  0  0  0  0  0
    1.7874    0.4062    0.0000 C   0  0  0     0  0  0  0  0  0
    2.4780    0.8124    0.0000 C   0  0  0     0  0  0  0  0  0
    3.1685    0.4062    0.0000 C   0  0  0     0  0  0  0  0  0
    3.8997    0.8124    0.0000 C   0  0  0     0  0  0  0  0  0
    4.5903    0.4062    0.0000 C   0  0  0     0  0  0  0  0  0
    5.2809    0.8124    0.0000 C   0  0  0     0  0  0  0  0  0
  1  2  2  0  0  0  0
  2  3  1  0  0  0  0
  3  4  1  0  0  0  0
  4  5  1  0  0  0  0
  5  6  1  0  0  0  0
  6  7  1  0  0  0  0
  7  8  1  0  0  0  0
  8  9  1  0  0  0  0
  9 10  1  0  0  0  0
 10 11  1  0  0  0  0
 11 12  1  0  0  0  0
 12 13  1  0  0  0  0
 13 14  1  0  0  0  0
 14 15  1  0  0  0  0
 15 16  1  0  0  0  0
>  <NAME>
1-Hexadecene

>  <INCHIKEY>
GQEZCXVZFLOKMC-UHFFFAOYSA-N

>  <RETENTION INDEX>
SemiStdNP=1590.7

>  <POLYMER>
PE (48)

>  <FORMULA>
C16H32

>  <MW>
224

>  <EXACT MASS>
224.2504015

>  <CASNO>
629732

>  <ID>
51

>  <NUM PEAKS>
43

>  <MASS SPECTRAL PEAKS>
27 104
29 246
39 130
40 18
41 720
42 178
43 992
44 29
53 64
54 127
55 975
56 655
57 999
58 46
65 6
67 159
68 161
69 857
70 657
71 432
72 20
75 7
79 6
81 78
82 194
83 912
84 391
85 226
86 16
95 19
96 104
97 702
98 221
99 37
110 38
111 284
112 118
113 6
125 107
126 64
139 19
140 33
154 17

$$$$
PENTADECANE
  -NISTMS-12099911132D 1   1.0         0.0          
CAS rn = 629629, Library ID = 52
 15 14  0  0  0  0  0  0  0  0  0
    0.6912    0.8132    0.0000 C   0  0  0     0  0  0  0  0  0
    0.0000    0.4066    0.0000 C   0  0  0     0  0  0  0  0  0
    1.4231    0.4066    0.0000 C   0  0  0     0  0  0  0  0  0
   -0.6912    0.8132    0.0000 C   0  0  0     0  0  0  0  0  0
   -1.4231    0.4066    0.0000 C   0  0  0     0  0  0  0  0  0
    2.1143    0.8132    0.0000 C   0  0  0     0  0  0  0  0  0
   -2.1143    0.8132    0.0000 C   0  0  0     0  0  0  0  0  0
    2.8054    0.4066    0.0000 C   0  0  0     0  0  0  0  0  0
   -2.8054    0.4066    0.0000 C   0  0  0     0  0  0  0  0  0
    3.5373    0.8132    0.0000 C   0  0  0     0  0  0  0  0  0
   -3.5373    0.8132    0.0000 C   0  0  0     0  0  0  0  0  0
    4.2285    0.4066    0.0000 C   0  0  0     0  0  0  0  0  0
   -4.2285    0.4066    0.0000 C   0  0  0     0  0  0  0  0  0
    4.9197    0.8132    0.0000 C   0  0  0     0  0  0  0  0  0
   -4.9197    0.8132    0.0000 C   0  0  0     0  0  0  0  0  0
  1  2  1  0  0  0  0
  1  3  1  0  0  0  0
  2  4  1  0  0  0  0
  3  6  1  0  0  0  0
  4  5  1  0  0  0  0
  5  7  1  0  0  0  0
  6  8  1  0  0  0  0
  7  9  1  0  0  0  0
  8 10  1  0  0  0  0
  9 11  1  0  0  0  0
 10 12  1  0  0  0  0
 11 13  1  0  0  0  0
 12 14  1  0  0  0  0
 13 15  1  0  0  0  0
>  <NAME>
Pentadecane

>  <INCHIKEY>
YCOZIPAWZNQLMR-UHFFFAOYSA-N

>  <RETENTION INDEX>
SemiStdNP=1500

>  <POLYMER>
PE (48)

>  <FORMULA>
C15H32

>  <MW>
212

>  <EXACT MASS>
212.2504015

>  <CASNO>
629629

>  <ID>
52

>  <NUM PEAKS>
37

>  <MASS SPECTRAL PEAKS>
27 46
29 128
36 5
39 33
41 244
42 69
43 695
44 19
47 6
53 5
54 7
55 134
56 122
57 999
58 45
68 10
69 69
70 94
71 609
72 35
73 6
82 8
83 44
84 65
85 383
86 26
96 10
97 34
98 35
99 75
111 12
112 22
113 34
126 13
127 15
129 4
140 6

$$$$
1-PENTADECENE
  -NISTMS-12099911132D 1   1.0         0.0          
CAS rn = 13360617, Library ID = 53
 15 14  0  0  0  0  0  0  0  0  0
    0.6912    0.8132    0.0000 C   0  0  0     0  0  0  0  0  0
    0.0000    0.4066    0.0000 C   0  0  0     0  0  0  0  0  0
    1.4231    0.4066    0.0000 C   0  0  0     0  0  0  0  0  0
   -0.6912    0.8132    0.0000 C   0  0  0     0  0  0  0  0  0
   -1.4231    0.4066    0.0000 C   0  0  0     0  0  0  0  0  0
    2.1143    0.8132    0.0000 C   0  0  0     0  0  0  0  0  0
   -2.1143    0.8132    0.0000 C   0  0  0     0  0  0  0  0  0
    2.8054    0.4066    0.0000 C   0  0  0     0  0  0  0  0  0
   -2.8054    0.4066    0.0000 C   0  0  0     0  0  0  0  0  0
    3.5373    0.8132    0.0000 C   0  0  0     0  0  0  0  0  0
   -3.5373    0.8132    0.0000 C   0  0  0     0  0  0  0  0  0
    4.2285    0.4066    0.0000 C   0  0  0     0  0  0  0  0  0
   -4.2285    0.4066    0.0000 C   0  0  0     0  0  0  0  0  0
    4.9197    0.8132    0.0000 C   0  0  0     0  0  0  0  0  0
   -4.9197    0.8132    0.0000 C   0  0  0     0  0  0  0  0  0
  1  2  1  0  0  0  0
  1  3  1  0  0  0  0
  2  4  1  0  0  0  0
  3  6  1  0  0  0  0
  4  5  1  0  0  0  0
  5  7  1  0  0  0  0
  6  8  1  0  0  0  0
  7  9  1  0  0  0  0
  8 10  1  0  0  0  0
  9 11  1  0  0  0  0
 10 12  1  0  0  0  0
 11 13  1  0  0  0  0
 12 14  1  0  0  0  0
 13 15  2  0  0  0  0
>  <NAME>
1-Pentadecene

>  <INCHIKEY>
PJLHTVIBELQURV-UHFFFAOYSA-N

>  <RETENTION INDEX>
SemiStdNP=1490.7

>  <POLYMER>
PE (48)

>  <FORMULA>
C15H30

>  <MW>
210

>  <EXACT MASS>
210.234751

>  <CASNO>
13360617

>  <ID>
53

>  <NUM PEAKS>
45

>  <MASS SPECTRAL PEAKS>
27 109
29 268
39 139
40 16
41 779
42 199
43 999
44 32
51 10
53 64
54 137
55 978
56 710
57 924
58 45
63 4
66 8
67 152
68 150
69 838
70 698
71 393
72 15
79 14
81 74
82 191
83 858
84 421
85 194
86 8
95 21
96 86
97 638
98 219
99 25
110 32
111 241
112 100
124 9
125 80
126 51
139 17
140 34
154 9
182 9

$$$$
TETRADECANE
  -NISTMS-12099911132D 1   1.0         0.0          
CAS rn = 629594, Library ID = 54
 14 13  0  0  0  0  0  0  0  0  0
   -4.5402    0.3648    0.0000 C   0  0  0     0  0  0  0  0  0
   -3.8511    0.7702    0.0000 C   0  0  0     0  0  0  0  0  0
   -3.1620    0.3648    0.0000 C   0  0  0     0  0  0  0  0  0
   -2.4323    0.7702    0.0000 C   0  0  0     0  0  0  0  0  0
   -1.7431    0.3648    0.0000 C   0  0  0     0  0  0  0  0  0
   -1.0540    0.7702    0.0000 C   0  0  0     0  0  0  0  0  0
   -0.3243    0.3648    0.0000 C   0  0  0     0  0  0  0  0  0
    0.3648    0.7702    0.0000 C   0  0  0     0  0  0  0  0  0
    1.0540    0.3648    0.0000 C   0  0  0     0  0  0  0  0  0
    1.7837    0.7702    0.0000 C   0  0  0     0  0  0  0  0  0
    2.4728    0.3648    0.0000 C   0  0  0     0  0  0  0  0  0
    3.1620    0.7702    0.0000 C   0  0  0     0  0  0  0  0  0
    3.8916    0.3648    0.0000 C   0  0  0     0  0  0  0  0  0
    4.5808    0.8108    0.0000 C   0  0  0     0  0  0  0  0  0
  1  2  1  0  0  0  0
  2  3  1  0  0  0  0
  3  4  1  0  0  0  0
  4  5  1  0  0  0  0
  5  6  1  0  0  0  0
  6  7  1  0  0  0  0
  7  8  1  0  0  0  0
  8  9  1  0  0  0  0
  9 10  1  0  0  0  0
 10 11  1  0  0  0  0
 11 12  1  0  0  0  0
 12 13  1  0  0  0  0
 13 14  1  0  0  0  0
>  <NAME>
Tetradecane

>  <INCHIKEY>
BGHCVCJVXZWKCC-UHFFFAOYSA-N

>  <RETENTION INDEX>
SemiStdNP=1400

>  <POLYMER>
PE (48)

>  <FORMULA>
C14H30

>  <MW>
198

>  <EXACT MASS>
198.234751

>  <CASNO>
629594

>  <ID>
54

>  <NUM PEAKS>
35

>  <MASS SPECTRAL PEAKS>
27 52
29 138
37 5
39 34
40 4
41 255
42 79
43 745
44 30
54 11
55 126
56 130
57 999
58 47
67 10
69 63
70 101
71 598
72 31
75 6
77 5
79 5
83 37
84 59
85 369
86 24
97 23
98 33
99 68
111 6
112 21
113 26
126 12
127 14
198 8

$$$$
1-TETRADECENE
  -NISTMS-12099911132D 1   1.0         0.0          
CAS rn = 1120361, Library ID = 55
 14 13  0  0  0  0  0  0  0  0  0
    1.8344    0.4076    0.0000 C   0  0  0     0  0  0  0  0  0
    2.5274    0.7745    0.0000 C   0  0  0     0  0  0  0  0  0
   -1.0599    0.4076    0.0000 C   0  0  0     0  0  0  0  0  0
   -0.3261    0.7745    0.0000 C   0  0  0     0  0  0  0  0  0
   -3.9541    0.4076    0.0000 C   0  0  0     0  0  0  0  0  0
   -3.2611    0.7745    0.0000 C   0  0  0     0  0  0  0  0  0
    1.1006    0.7745    0.0000 C   0  0  0     0  0  0  0  0  0
    3.2611    0.4076    0.0000 C   0  0  0     0  0  0  0  0  0
    0.3669    0.4076    0.0000 C   0  0  0     0  0  0  0  0  0
    3.9949    0.7745    0.0000 C   0  0  0     0  0  0  0  0  0
    4.7287    0.4076    0.0000 C   0  0  0     0  0  0  0  0  0
   -1.7936    0.7745    0.0000 C   0  0  0     0  0  0  0  0  0
   -2.5274    0.4076    0.0000 C   0  0  0     0  0  0  0  0  0
   -4.6879    0.7745    0.0000 C   0  0  0     0  0  0  0  0  0
  1  2  1  0  0  0  0
  1  7  1  0  0  0  0
  2  8  1  0  0  0  0
  3  4  1  0  0  0  0
  3 12  1  0  0  0  0
  4  9  1  0  0  0  0
  5  6  1  0  0  0  0
  5 14  1  0  0  0  0
  6 13  1  0  0  0  0
  7  9  1  0  0  0  0
  8 10  1  0  0  0  0
 10 11  2  0  0  0  0
 12 13  1  0  0  0  0
>  <NAME>
1-Tetradecene

>  <INCHIKEY>
HFDVRLIODXPAHB-UHFFFAOYSA-N

>  <RETENTION INDEX>
SemiStdNP=1390.6

>  <POLYMER>
PE (48)

>  <FORMULA>
C14H28

>  <MW>
196

>  <EXACT MASS>
196.219101

>  <CASNO>
1120361

>  <ID>
55

>  <NUM PEAKS>
42

>  <MASS SPECTRAL PEAKS>
27 123
29 286
39 155
40 27
41 798
42 212
43 999
44 38
53 72
54 141
55 972
56 765
57 873
58 32
65 10
66 11
67 151
68 136
69 843
70 735
71 337
72 18
79 12
81 66
82 170
83 801
84 407
85 156
95 9
96 71
97 546
98 192
99 14
110 27
111 207
112 97
124 3
125 72
126 51
140 16
154 10
168 11

$$$$
TRIDECANE
  -NISTMS-12099911132D 1   1.0         0.0          
CAS rn = 629505, Library ID = 56
 13 12  0  0  0  0  0  0  0  0  0
    0.6898    0.8115    0.0000 C   0  0  0     0  0  0  0  0  0
    0.0000    0.4057    0.0000 C   0  0  0     0  0  0  0  0  0
    1.4201    0.4057    0.0000 C   0  0  0     0  0  0  0  0  0
   -0.6898    0.8115    0.0000 C   0  0  0     0  0  0  0  0  0
   -1.4201    0.4057    0.0000 C   0  0  0     0  0  0  0  0  0
    2.1099    0.8115    0.0000 C   0  0  0     0  0  0  0  0  0
   -2.1099    0.8115    0.0000 C   0  0  0     0  0  0  0  0  0
    2.7997    0.4057    0.0000 C   0  0  0     0  0  0  0  0  0
   -2.7997    0.4057    0.0000 C   0  0  0     0  0  0  0  0  0
    3.5300    0.8115    0.0000 C   0  0  0     0  0  0  0  0  0
   -3.5300    0.8115    0.0000 C   0  0  0     0  0  0  0  0  0
    4.2198    0.4057    0.0000 C   0  0  0     0  0  0  0  0  0
   -4.2198    0.4057    0.0000 C   0  0  0     0  0  0  0  0  0
  1  2  1  0  0  0  0
  1  3  1  0  0  0  0
  2  4  1  0  0  0  0
  3  6  1  0  0  0  0
  4  5  1  0  0  0  0
  5  7  1  0  0  0  0
  6  8  1  0  0  0  0
  7  9  1  0  0  0  0
  8 10  1  0  0  0  0
  9 11  1  0  0  0  0
 10 12  1  0  0  0  0
 11 13  1  0  0  0  0
>  <NAME>
Tridecane

>  <INCHIKEY>
IIYFAKIEWZDVMP-UHFFFAOYSA-N

>  <RETENTION INDEX>
SemiStdNP=1300

>  <POLYMER>
PE (48)

>  <FORMULA>
C13H28

>  <MW>
184

>  <EXACT MASS>
184.219101

>  <CASNO>
629505

>  <ID>
56

>  <NUM PEAKS>
35

>  <MASS SPECTRAL PEAKS>
27 65
28 21
29 135
39 39
41 273
42 83
43 787
44 24
53 10
54 10
55 137
56 133
57 999
58 49
67 10
69 61
70 104
71 561
72 30
83 28
84 59
85 332
86 12
97 25
98 37
99 54
106 3
112 22
113 21
124 2
126 9
127 15
140 3
141 7
184 4

$$$$
1-TRIDECENE
  -NISTMS-12099911132D 1   1.0         0.0          
CAS rn = 2437561, Library ID = 57
 13 12  0  0  0  0  0  0  0  0  0
   -0.6898    0.8115    0.0000 C   0  0  0     0  0  0  0  0  0
    0.0000    0.4057    0.0000 C   0  0  0     0  0  0  0  0  0
   -1.4201    0.4057    0.0000 C   0  0  0     0  0  0  0  0  0
    0.6898    0.8115    0.0000 C   0  0  0     0  0  0  0  0  0
    1.4201    0.4057    0.0000 C   0  0  0     0  0  0  0  0  0
   -2.1099    0.8115    0.0000 C   0  0  0     0  0  0  0  0  0
    2.1099    0.8115    0.0000 C   0  0  0     0  0  0  0  0  0
   -2.7997    0.4057    0.0000 C   0  0  0     0  0  0  0  0  0
    2.7997    0.4057    0.0000 C   0  0  0     0  0  0  0  0  0
   -3.5300    0.8115    0.0000 C   0  0  0     0  0  0  0  0  0
    3.5300    0.8115    0.0000 C   0  0  0     0  0  0  0  0  0
   -4.2198    0.4057    0.0000 C   0  0  0     0  0  0  0  0  0
    4.2198    0.4057    0.0000 C   0  0  0     0  0  0  0  0  0
  1  2  1  0  0  0  0
  1  3  1  0  0  0  0
  2  4  1  0  0  0  0
  3  6  1  0  0  0  0
  4  5  1  0  0  0  0
  5  7  1  0  0  0  0
  6  8  1  0  0  0  0
  7  9  1  0  0  0  0
  8 10  1  0  0  0  0
  9 11  1  0  0  0  0
 10 12  1  0  0  0  0
 11 13  2  0  0  0  0
>  <NAME>
1-Tridecene

>  <INCHIKEY>
VQOXUMQBYILCKR-UHFFFAOYSA-N

>  <RETENTION INDEX>
SemiStdNP=1290.4

>  <POLYMER>
PE (48)

>  <FORMULA>
C13H26

>  <MW>
182

>  <EXACT MASS>
182.203451

>  <CASNO>
2437561

>  <ID>
57

>  <NUM PEAKS>
43

>  <MASS SPECTRAL PEAKS>
22 5
27 130
29 282
35 4
39 156
40 23
41 760
42 216
43 999
44 35
51 8
53 71
54 126
55 945
56 791
57 737
58 32
65 13
67 136
68 131
69 779
70 746
71 252
72 8
79 14
81 53
82 141
83 645
84 355
85 131
95 16
96 66
97 452
98 178
99 14
110 20
111 176
112 77
125 42
126 25
140 8
154 13
160 5

$$$$
DODECANE
  -NISTMS-12099911132D 1   1.0         0.0          
CAS rn = 112403, Library ID = 58
 12 11  0  0  0  0  0  0  0  0  0
    0.3661    0.8136    0.0000 C   0  0  0     0  0  0  0  0  0
   -0.3661    0.4068    0.0000 C   0  0  0     0  0  0  0  0  0
    1.0577    0.4068    0.0000 C   0  0  0     0  0  0  0  0  0
   -1.0577    0.8136    0.0000 C   0  0  0     0  0  0  0  0  0
   -1.7493    0.4068    0.0000 C   0  0  0     0  0  0  0  0  0
    1.7493    0.8136    0.0000 C   0  0  0     0  0  0  0  0  0
   -2.4816    0.8136    0.0000 C   0  0  0     0  0  0  0  0  0
    2.4816    0.4068    0.0000 C   0  0  0     0  0  0  0  0  0
   -3.1732    0.4068    0.0000 C   0  0  0     0  0  0  0  0  0
    3.1732    0.8136    0.0000 C   0  0  0     0  0  0  0  0  0
   -3.8648    0.8136    0.0000 C   0  0  0     0  0  0  0  0  0
    3.8648    0.4068    0.0000 C   0  0  0     0  0  0  0  0  0
  1  2  1  0  0  0  0
  1  3  1  0  0  0  0
  2  4  1  0  0  0  0
  3  6  1  0  0  0  0
  4  5  1  0  0  0  0
  5  7  1  0  0  0  0
  6  8  1  0  0  0  0
  7  9  1  0  0  0  0
  8 10  1  0  0  0  0
  9 11  1  0  0  0  0
 10 12  1  0  0  0  0
>  <NAME>
Dodecane

>  <INCHIKEY>
SNRUBQQJIBEYMU-UHFFFAOYSA-N

>  <RETENTION INDEX>
SemiStdNP=1200

>  <POLYMER>
PE (48)

>  <FORMULA>
C12H26

>  <MW>
170

>  <EXACT MASS>
170.203451

>  <CASNO>
112403

>  <ID>
58

>  <NUM PEAKS>
32

>  <MASS SPECTRAL PEAKS>
27 67
29 147
39 46
40 15
41 284
42 92
43 844
44 32
53 12
54 9
55 124
56 143
57 999
58 49
67 8
68 3
69 53
70 112
71 523
72 29
82 5
83 22
84 60
85 294
86 18
98 40
99 38
112 19
113 18
126 11
127 10
170 5

$$$$
1-DODECENE
  -NISTMS-12099911132D 1   1.0         0.0          
CAS rn = 112414, Library ID = 59
 12 11  0  0  0  0  0  0  0  0  0
   -3.8641    0.7728    0.0000 C   0  0  0     0  0  0  0  0  0
   -3.1319    0.3661    0.0000 C   0  0  0     0  0  0  0  0  0
   -2.4405    0.8135    0.0000 C   0  0  0     0  0  0  0  0  0
   -1.7490    0.4067    0.0000 C   0  0  0     0  0  0  0  0  0
   -1.0575    0.8135    0.0000 C   0  0  0     0  0  0  0  0  0
   -0.3661    0.4067    0.0000 C   0  0  0     0  0  0  0  0  0
    0.3254    0.8135    0.0000 C   0  0  0     0  0  0  0  0  0
    1.0575    0.4067    0.0000 C   0  0  0     0  0  0  0  0  0
    1.7490    0.8135    0.0000 C   0  0  0     0  0  0  0  0  0
    2.4405    0.4474    0.0000 C   0  0  0     0  0  0  0  0  0
    3.1319    0.8542    0.0000 C   0  0  0     0  0  0  0  0  0
    3.8641    0.4474    0.0000 C   0  0  0     0  0  0  0  0  0
  1  2  2  0  0  0  0
  2  3  1  0  0  0  0
  3  4  1  0  0  0  0
  4  5  1  0  0  0  0
  5  6  1  0  0  0  0
  6  7  1  0  0  0  0
  7  8  1  0  0  0  0
  8  9  1  0  0  0  0
  9 10  1  0  0  0  0
 10 11  1  0  0  0  0
 11 12  1  0  0  0  0
>  <NAME>
1-Dodecene

>  <INCHIKEY>
CRSBERNSMYQZNG-UHFFFAOYSA-N

>  <RETENTION INDEX>
SemiStdNP=1190.3

>  <POLYMER>
PE (48)

>  <FORMULA>
C12H24

>  <MW>
168

>  <EXACT MASS>
168.1878

>  <CASNO>
112414

>  <ID>
59

>  <NUM PEAKS>
41

>  <MASS SPECTRAL PEAKS>
26 9
27 145
29 281
38 4
39 179
40 25
41 781
42 248
43 999
44 35
51 10
53 77
54 127
55 917
56 837
57 578
58 23
65 8
67 129
68 121
69 765
70 677
71 226
72 8
77 7
79 13
81 48
82 126
83 563
84 354
85 113
96 43
97 370
98 158
99 8
110 11
111 115
112 44
125 35
126 24
140 17

$$$$
UNDECANE
  -NISTMS-12099911132D 1   1.0         0.0          
CAS rn = 1120214, Library ID = 60
 11 10  0  0  0  0  0  0  0  0  0
   -3.5284    0.3650    0.0000 C   0  0  0     0  0  0  0  0  0
   -2.8389    0.7706    0.0000 C   0  0  0     0  0  0  0  0  0
   -2.1495    0.4056    0.0000 C   0  0  0     0  0  0  0  0  0
   -1.4600    0.8111    0.0000 C   0  0  0     0  0  0  0  0  0
   -0.7300    0.4056    0.0000 C   0  0  0     0  0  0  0  0  0
    0.0000    0.8111    0.0000 C   0  0  0     0  0  0  0  0  0
    0.6895    0.4056    0.0000 C   0  0  0     0  0  0  0  0  0
    1.4195    0.8111    0.0000 C   0  0  0     0  0  0  0  0  0
    2.1089    0.4056    0.0000 C   0  0  0     0  0  0  0  0  0
    2.7984    0.8111    0.0000 C   0  0  0     0  0  0  0  0  0
    3.5284    0.4056    0.0000 C   0  0  0     0  0  0  0  0  0
  1  2  1  0  0  0  0
  2  3  1  0  0  0  0
  3  4  1  0  0  0  0
  4  5  1  0  0  0  0
  5  6  1  0  0  0  0
  6  7  1  0  0  0  0
  7  8  1  0  0  0  0
  8  9  1  0  0  0  0
  9 10  1  0  0  0  0
 10 11  1  0  0  0  0
>  <NAME>
Undecane

>  <INCHIKEY>
RSJKGSCJYJTIGS-UHFFFAOYSA-N

>  <RETENTION INDEX>
SemiStdNP=1100

>  <POLYMER>
PE (48)

>  <FORMULA>
C11H24

>  <MW>
156

>  <EXACT MASS>
156.1878

>  <CASNO>
1120214

>  <ID>
60

>  <NUM PEAKS>
33

>  <MASS SPECTRAL PEAKS>
27 82
28 15
29 159
39 65
40 14
41 305
42 102
43 880
44 29
50 6
53 13
54 8
55 122
56 148
57 999
58 47
67 6
69 52
70 118
71 474
72 25
83 16
84 66
85 263
86 16
94 3
98 40
99 33
112 12
113 19
126 5
127 10
156 12

$$$$
1-UNDECENE
  -NISTMS-12099911132D 1   1.0         0.0          
CAS rn = 821954, Library ID = 61
 11 10  0  0  0  0  0  0  0  0  0
    0.6908    0.8127    0.0000 C   0  0  0     0  0  0  0  0  0
    0.0000    0.4063    0.0000 C   0  0  0     0  0  0  0  0  0
    1.4222    0.4063    0.0000 C   0  0  0     0  0  0  0  0  0
   -0.6908    0.8127    0.0000 C   0  0  0     0  0  0  0  0  0
   -1.3815    0.4063    0.0000 C   0  0  0     0  0  0  0  0  0
    2.1129    0.8127    0.0000 C   0  0  0     0  0  0  0  0  0
   -2.0723    0.8127    0.0000 C   0  0  0     0  0  0  0  0  0
    2.8037    0.4063    0.0000 C   0  0  0     0  0  0  0  0  0
   -2.7631    0.4063    0.0000 C   0  0  0     0  0  0  0  0  0
    3.5351    0.8127    0.0000 C   0  0  0     0  0  0  0  0  0
   -3.4945    0.8127    0.0000 C   0  0  0     0  0  0  0  0  0
  1  2  1  0  0  0  0
  1  3  1  0  0  0  0
  2  4  1  0  0  0  0
  3  6  1  0  0  0  0
  4  5  1  0  0  0  0
  5  7  1  0  0  0  0
  6  8  1  0  0  0  0
  7  9  1  0  0  0  0
  8 10  1  0  0  0  0
  9 11  2  0  0  0  0
>  <NAME>
1-Undecene

>  <INCHIKEY>
DCTOHCCUXLBQMS-UHFFFAOYSA-N

>  <RETENTION INDEX>
SemiStdNP=1090.1

>  <POLYMER>
PE (48); Nylon 12 (21)

>  <FORMULA>
C11H22

>  <MW>
154

>  <EXACT MASS>
154.172151

>  <CASNO>
821954

>  <ID>
61

>  <NUM PEAKS>
39

>  <MASS SPECTRAL PEAKS>
24 4
27 170
29 314
39 227
40 35
41 856
42 308
43 976
44 36
51 12
53 82
54 125
55 999
56 891
57 599
58 27
65 11
67 116
68 119
69 760
70 845
71 244
72 13
78 6
79 11
81 30
82 104
83 524
84 356
85 60
96 29
97 285
98 104
110 11
111 98
112 49
125 30
126 37
154 12

$$$$
DECANE
  -NISTMS-12099911132D 1   1.0         0.0          
CAS rn = 124185, Library ID = 62
 10  9  0  0  0  0  0  0  0  0  0
    0.3652    0.8115    0.0000 C   0  0  0     0  0  0  0  0  0
   -0.3652    0.4057    0.0000 C   0  0  0     0  0  0  0  0  0
    1.0549    0.4057    0.0000 C   0  0  0     0  0  0  0  0  0
   -1.0549    0.8115    0.0000 C   0  0  0     0  0  0  0  0  0
   -1.7447    0.4057    0.0000 C   0  0  0     0  0  0  0  0  0
    1.7447    0.8115    0.0000 C   0  0  0     0  0  0  0  0  0
   -2.4751    0.8115    0.0000 C   0  0  0     0  0  0  0  0  0
    2.4751    0.4057    0.0000 C   0  0  0     0  0  0  0  0  0
   -3.1648    0.4057    0.0000 C   0  0  0     0  0  0  0  0  0
    3.1648    0.8115    0.0000 C   0  0  0     0  0  0  0  0  0
  1  2  1  0  0  0  0
  1  3  1  0  0  0  0
  2  4  1  0  0  0  0
  3  6  1  0  0  0  0
  4  5  1  0  0  0  0
  5  7  1  0  0  0  0
  6  8  1  0  0  0  0
  7  9  1  0  0  0  0
  8 10  1  0  0  0  0
>  <NAME>
Decane

>  <INCHIKEY>
DIOQZVSQGTUSAI-UHFFFAOYSA-N

>  <RETENTION INDEX>
SemiStdNP=1000

>  <POLYMER>
PE (48)

>  <FORMULA>
C10H22

>  <MW>
142

>  <EXACT MASS>
142.172151

>  <CASNO>
124185

>  <ID>
62

>  <NUM PEAKS>
30

>  <MASS SPECTRAL PEAKS>
14 6
16 6
27 96
29 171
39 70
40 4
41 327
42 111
43 983
44 39
53 16
54 11
55 122
56 164
57 999
58 47
69 47
70 129
71 378
72 16
83 6
84 70
85 246
86 21
98 40
99 34
106 2
112 10
113 18
142 14

$$$$
1-DECENE
  -NISTMS-12099911132D 1   1.0         0.0          
CAS rn = 872059, Library ID = 63
 10  9  0  0  0  0  0  0  0  0  0
    0.3661    0.7729    0.0000 C   0  0  0     0  0  0  0  0  0
   -0.3661    0.3661    0.0000 C   0  0  0     0  0  0  0  0  0
    1.0577    0.3661    0.0000 C   0  0  0     0  0  0  0  0  0
   -1.0577    0.7729    0.0000 C   0  0  0     0  0  0  0  0  0
   -1.7492    0.3661    0.0000 C   0  0  0     0  0  0  0  0  0
    1.7492    0.7729    0.0000 C   0  0  0     0  0  0  0  0  0
   -2.4815    0.7729    0.0000 C   0  0  0     0  0  0  0  0  0
    2.4815    0.4068    0.0000 C   0  0  0     0  0  0  0  0  0
   -3.1730    0.3661    0.0000 C   0  0  0     0  0  0  0  0  0
    3.1730    0.8136    0.0000 C   0  0  0     0  0  0  0  0  0
  1  2  1  0  0  0  0
  1  3  1  0  0  0  0
  2  4  1  0  0  0  0
  3  6  1  0  0  0  0
  4  5  1  0  0  0  0
  5  7  1  0  0  0  0
  6  8  1  0  0  0  0
  7  9  1  0  0  0  0
  8 10  2  0  0  0  0
>  <NAME>
1-Decene

>  <INCHIKEY>
AFFLGGQVNFXPEV-UHFFFAOYSA-N

>  <RETENTION INDEX>
SemiStdNP=989.3

>  <POLYMER>
PE (48); Nylon 12 (21)

>  <FORMULA>
C10H20

>  <MW>
140

>  <EXACT MASS>
140.156501

>  <CASNO>
872059

>  <ID>
63

>  <NUM PEAKS>
43

>  <MASS SPECTRAL PEAKS>
26 5
27 181
29 318
30 6
39 243
40 42
41 875
42 327
43 760
44 23
50 3
51 14
52 8
53 76
54 114
55 953
56 999
57 677
58 31
65 12
66 4
67 95
68 108
69 655
70 801
71 106
77 3
79 8
81 22
82 65
83 334
84 210
85 40
88 4
95 4
96 31
97 220
98 111
99 5
110 5
111 92
112 62
140 14

$$$$
NONANE
  -NISTMS-12099911132D 1   1.0         0.0          
CAS rn = 111842, Library ID = 64
  9  8  0  0  0  0  0  0  0  0  0
   -2.8004    0.3653    0.0000 C   0  0  0     0  0  0  0  0  0
   -2.0698    0.7711    0.0000 C   0  0  0     0  0  0  0  0  0
   -1.3799    0.3653    0.0000 C   0  0  0     0  0  0  0  0  0
   -0.6899    0.7711    0.0000 C   0  0  0     0  0  0  0  0  0
    0.0406    0.3653    0.0000 C   0  0  0     0  0  0  0  0  0
    0.7305    0.8117    0.0000 C   0  0  0     0  0  0  0  0  0
    1.3799    0.4058    0.0000 C   0  0  0     0  0  0  0  0  0
    2.1104    0.8117    0.0000 C   0  0  0     0  0  0  0  0  0
    2.8004    0.4058    0.0000 C   0  0  0     0  0  0  0  0  0
  1  2  1  0  0  0  0
  2  3  1  0  0  0  0
  3  4  1  0  0  0  0
  4  5  1  0  0  0  0
  5  6  1  0  0  0  0
  6  7  1  0  0  0  0
  7  8  1  0  0  0  0
  8  9  1  0  0  0  0
>  <NAME>
Nonane

>  <INCHIKEY>
BKIMMITUMNQMOS-UHFFFAOYSA-N

>  <RETENTION INDEX>
SemiStdNP=900

>  <POLYMER>
PE (48)

>  <FORMULA>
C9H20

>  <MW>
128

>  <EXACT MASS>
128.156501

>  <CASNO>
111842

>  <ID>
64

>  <NUM PEAKS>
26

>  <MASS SPECTRAL PEAKS>
20 3
27 110
29 179
39 73
40 10
41 323
42 114
43 999
44 31
53 11
55 113
56 164
57 827
58 34
69 30
70 129
71 232
72 13
84 69
85 276
86 14
87 6
89 6
98 28
99 45
128 19

$$$$
1-NONENE
  -NISTMS-12099911132D 1   1.0         0.0          
CAS rn = 124118, Library ID = 65
  9  8  0  0  0  0  0  0  0  0  0
   -0.6885    0.8100    0.0000 C   0  0  0     0  0  0  0  0  0
    0.0000    0.4050    0.0000 C   0  0  0     0  0  0  0  0  0
   -1.4176    0.4050    0.0000 C   0  0  0     0  0  0  0  0  0
    0.7290    0.8100    0.0000 C   0  0  0     0  0  0  0  0  0
    1.4581    0.4050    0.0000 C   0  0  0     0  0  0  0  0  0
   -2.1061    0.8100    0.0000 C   0  0  0     0  0  0  0  0  0
    2.1466    0.8100    0.0000 C   0  0  0     0  0  0  0  0  0
   -2.7946    0.4050    0.0000 C   0  0  0     0  0  0  0  0  0
    2.8351    0.4050    0.0000 C   0  0  0     0  0  0  0  0  0
  1  2  1  0  0  0  0
  1  3  1  0  0  0  0
  2  4  1  0  0  0  0
  3  6  1  0  0  0  0
  4  5  1  0  0  0  0
  5  7  1  0  0  0  0
  6  8  1  0  0  0  0
  7  9  2  0  0  0  0
>  <NAME>
1-Nonene

>  <INCHIKEY>
JRZJOMJEPLMPRA-UHFFFAOYSA-N

>  <RETENTION INDEX>
SemiStdNP=887.5

>  <POLYMER>
PE (48); Nylon 12 (21)

>  <FORMULA>
C9H18

>  <MW>
126

>  <EXACT MASS>
126.1408505

>  <CASNO>
124118

>  <ID>
65

>  <NUM PEAKS>
35

>  <MASS SPECTRAL PEAKS>
15 6
27 193
28 13
29 269
39 235
40 29
41 743
42 370
43 999
44 32
51 18
53 76
54 95
55 792
56 981
57 215
58 3
64 3
65 9
67 83
68 64
69 489
70 446
71 60
79 6
82 46
83 211
84 207
85 36
96 9
97 178
98 79
111 8
126 17
127 2

$$$$
OCTANE
  -NISTMS-12099911132D 1   1.0         0.0          
CAS rn = 111659, Library ID = 66
  8  7  0  0  0  0  0  0  0  0  0
    0.3637    0.8082    0.0000 C   0  0  0     0  0  0  0  0  0
   -0.3637    0.4041    0.0000 C   0  0  0     0  0  0  0  0  0
    1.0506    0.4041    0.0000 C   0  0  0     0  0  0  0  0  0
   -1.0506    0.8082    0.0000 C   0  0  0     0  0  0  0  0  0
   -1.7375    0.4041    0.0000 C   0  0  0     0  0  0  0  0  0
    1.7375    0.8082    0.0000 C   0  0  0     0  0  0  0  0  0
   -2.4649    0.8082    0.0000 C   0  0  0     0  0  0  0  0  0
    2.4649    0.4041    0.0000 C   0  0  0     0  0  0  0  0  0
  1  2  1  0  0  0  0
  1  3  1  0  0  0  0
  2  4  1  0  0  0  0
  3  6  1  0  0  0  0
  4  5  1  0  0  0  0
  5  7  1  0  0  0  0
  6  8  1  0  0  0  0
>  <NAME>
Octane

>  <INCHIKEY>
TVMXDCGIABBOFY-UHFFFAOYSA-N

>  <RETENTION INDEX>
SemiStdNP=800

>  <POLYMER>
PE (48)

>  <FORMULA>
C8H18

>  <MW>
114

>  <EXACT MASS>
114.1408505

>  <CASNO>
111659

>  <ID>
66

>  <NUM PEAKS>
30

>  <MASS SPECTRAL PEAKS>
15 8
26 8
27 107
28 17
29 186
39 83
40 11
41 335
42 134
43 999
44 35
46 5
53 10
54 5
55 117
56 195
57 383
58 18
69 36
70 133
71 259
72 13
77 3
83 4
84 65
85 347
86 23
91 5
112 5
114 24

$$$$
1-OCTENE
  -NISTMS-12099911132D 1   1.0         0.0          
CAS rn = 111660, Library ID = 67
  8  7  0  0  0  0  0  0  0  0  0
   -2.4395    0.4066    0.0000 C   0  0  0     0  0  0  0  0  0
   -1.7483    0.8132    0.0000 C   0  0  0     0  0  0  0  0  0
   -1.0571    0.4066    0.0000 C   0  0  0     0  0  0  0  0  0
   -0.3253    0.8132    0.0000 C   0  0  0     0  0  0  0  0  0
    0.3659    0.4066    0.0000 C   0  0  0     0  0  0  0  0  0
    1.0571    0.8132    0.0000 C   0  0  0     0  0  0  0  0  0
    1.7890    0.4066    0.0000 C   0  0  0     0  0  0  0  0  0
    2.4802    0.8132    0.0000 C   0  0  0     0  0  0  0  0  0
  1  2  2  0  0  0  0
  2  3  1  0  0  0  0
  3  4  1  0  0  0  0
  4  5  1  0  0  0  0
  5  6  1  0  0  0  0
  6  7  1  0  0  0  0
  7  8  1  0  0  0  0
>  <NAME>
1-Octene

>  <INCHIKEY>
KWKAKUADMBZCLK-UHFFFAOYSA-N

>  <RETENTION INDEX>
SemiStdNP=784.8

>  <POLYMER>
PE (48); Nylon 12 (21)

>  <FORMULA>
C8H16

>  <MW>
112

>  <EXACT MASS>
112.1252007

>  <CASNO>
111660

>  <ID>
67

>  <NUM PEAKS>
33

>  <MASS SPECTRAL PEAKS>
16 4
26 11
27 248
28 33
29 339
38 10
39 317
40 45
41 845
42 664
43 999
44 31
50 4
51 22
52 13
53 92
54 92
55 998
56 781
57 143
63 7
65 11
67 64
68 67
69 427
70 778
71 110
79 4
81 10
82 59
83 292
84 189
97 38

$$$$
HEPTANE
  -NISTMS-12099911132D 1   1.0         0.0          
CAS rn = 142825, Library ID = 68
  7  6  0  0  0  0  0  0  0  0  0
   -2.1703    0.4095    0.0000 C   0  0  0     0  0  0  0  0  0
   -1.4332    0.7780    0.0000 C   0  0  0     0  0  0  0  0  0
   -0.6961    0.4095    0.0000 C   0  0  0     0  0  0  0  0  0
    0.0000    0.7780    0.0000 C   0  0  0     0  0  0  0  0  0
    0.6961    0.4095    0.0000 C   0  0  0     0  0  0  0  0  0
    1.3922    0.7780    0.0000 C   0  0  0     0  0  0  0  0  0
    2.1703    0.4095    0.0000 C   0  0  0     0  0  0  0  0  0
  1  2  1  0  0  0  0
  2  3  1  0  0  0  0
  3  4  1  0  0  0  0
  4  5  1  0  0  0  0
  5  6  1  0  0  0  0
  6  7  1  0  0  0  0
>  <NAME>
Heptane

>  <INCHIKEY>
IMNFDUFMRHMDMM-UHFFFAOYSA-N

>  <RETENTION INDEX>
SemiStdNP=700

>  <POLYMER>
PE (48); iso-PB (28)

>  <FORMULA>
C7H16

>  <MW>
100

>  <EXACT MASS>
100.1252007

>  <CASNO>
142825

>  <ID>
68

>  <NUM PEAKS>
26

>  <MASS SPECTRAL PEAKS>
26 5
27 136
28 13
29 231
36 4
38 5
39 89
40 22
41 455
42 174
43 999
44 32
51 9
53 16
54 4
55 54
56 229
57 505
58 21
70 181
71 523
72 29
79 6
85 22
100 85
101 5

$$$$
1-HEPTENE
  -NISTMS-12099911132D 1   1.0         0.0          
CAS rn = 592767, Library ID = 69
  7  6  0  0  0  0  0  0  0  0  0
   -2.1616    0.4078    0.0000 C   0  0  0     0  0  0  0  0  0
   -1.4275    0.8157    0.0000 C   0  0  0     0  0  0  0  0  0
   -0.6933    0.4486    0.0000 C   0  0  0     0  0  0  0  0  0
    0.0000    0.8157    0.0000 C   0  0  0     0  0  0  0  0  0
    0.7749    0.4486    0.0000 C   0  0  0     0  0  0  0  0  0
    1.4275    0.8157    0.0000 C   0  0  0     0  0  0  0  0  0
    2.1616    0.4486    0.0000 C   0  0  0     0  0  0  0  0  0
  1  2  2  0  0  0  0
  2  3  1  0  0  0  0
  3  4  1  0  0  0  0
  4  5  1  0  0  0  0
  5  6  1  0  0  0  0
  6  7  1  0  0  0  0
>  <NAME>
1-Heptene

>  <INCHIKEY>
ZGEGCLOFRBLKSE-UHFFFAOYSA-N

>  <RETENTION INDEX>
SemiStdNP=683

>  <POLYMER>
PE (48); Nylon 12 (21)

>  <FORMULA>
C7H14

>  <MW>
98

>  <EXACT MASS>
98.1095505

>  <CASNO>
592767

>  <ID>
69

>  <NUM PEAKS>
33

>  <MASS SPECTRAL PEAKS>
15 4
20 4
26 19
27 194
28 26
29 418
30 8
38 16
39 301
40 52
41 895
42 487
43 65
44 7
50 11
51 26
52 10
53 72
54 68
55 703
56 999
57 256
58 7
65 12
67 28
68 43
69 340
70 498
77 5
79 2
83 57
98 95
99 4

$$$$
1-HEXENE
  -NISTMS-12099911132D 1   1.0         0.0          
CAS rn = 592416, Library ID = 70
  6  5  0  0  0  0  0  0  0  0  0
   -1.7546    0.4081    0.0000 C   0  0  0     0  0  0  0  0  0
   -1.0201    0.8161    0.0000 C   0  0  0     0  0  0  0  0  0
   -0.3672    0.4081    0.0000 C   0  0  0     0  0  0  0  0  0
    0.3264    0.8161    0.0000 C   0  0  0     0  0  0  0  0  0
    1.0609    0.4081    0.0000 C   0  0  0     0  0  0  0  0  0
    1.7546    0.8161    0.0000 C   0  0  0     0  0  0  0  0  0
  1  2  2  0  0  0  0
  2  3  1  0  0  0  0
  3  4  1  0  0  0  0
  4  5  1  0  0  0  0
  5  6  1  0  0  0  0
>  <NAME>
1-Hexene

>  <INCHIKEY>
LIKMAJRDDDTEIG-UHFFFAOYSA-N

>  <RETENTION INDEX>
SemiStdNP=589.3

>  <POLYMER>
PE (48)

>  <FORMULA>
C6H12

>  <MW>
84

>  <EXACT MASS>
84.0939

>  <CASNO>
592416

>  <ID>
70

>  <NUM PEAKS>
30

>  <MASS SPECTRAL PEAKS>
15 10
22 1
26 27
27 295
28 41
29 171
33 1
37 7
38 30
39 332
40 69
41 941
42 649
43 559
44 20
50 26
51 35
52 12
53 74
54 45
55 647
56 999
63 5
65 9
69 257
70 14
77 5
79 5
84 199
85 15

$$$$
2,4,6-TRIPHENYL-1-HEXENE
  ACD/LABS08202410002D
CAS rn = 18964539, Library ID = 71
 24 26  0  0  0  0  0  0  0  0  1 V2000
   13.5681  -13.6806    0.0000 C   0  0  0  0  0  0  0  0  0  0  0  0
   15.0127  -12.8465    0.0000 C   0  0  0  0  0  0  0  0  0  0  0  0
   16.4573  -13.6806    0.0000 C   0  0  0  0  0  0  0  0  0  0  0  0
   17.9021  -12.8465    0.0000 C   0  0  0  0  0  0  0  0  0  0  0  0
   19.3467  -13.6806    0.0000 C   0  0  0  0  0  0  0  0  0  0  0  0
   20.7914  -12.8465    0.0000 C   0  0  0  0  0  0  0  0  0  0  0  0
   15.0127  -11.1784    0.0000 C   0  0  0  0  0  0  0  0  0  0  0  0
   17.9021  -11.1784    0.0000 C   0  0  0  0  0  0  0  0  0  0  0  0
   20.7914  -11.1784    0.0000 C   0  0  0  0  0  0  0  0  0  0  0  0
   16.1646   -9.1834    0.0000 C   0  0  0  0  0  0  0  0  0  0  0  0
   16.1646  -10.5134    0.0000 C   0  0  0  0  0  0  0  0  0  0  0  0
   15.0127   -8.5184    0.0000 C   0  0  0  0  0  0  0  0  0  0  0  0
   13.8609   -9.1834    0.0000 C   0  0  0  0  0  0  0  0  0  0  0  0
   13.8609  -10.5134    0.0000 C   0  0  0  0  0  0  0  0  0  0  0  0
   19.0540   -9.1834    0.0000 C   0  0  0  0  0  0  0  0  0  0  0  0
   19.0540  -10.5134    0.0000 C   0  0  0  0  0  0  0  0  0  0  0  0
   17.9021   -8.5184    0.0000 C   0  0  0  0  0  0  0  0  0  0  0  0
   16.7503   -9.1834    0.0000 C   0  0  0  0  0  0  0  0  0  0  0  0
   16.7503  -10.5134    0.0000 C   0  0  0  0  0  0  0  0  0  0  0  0
   21.9433   -9.1834    0.0000 C   0  0  0  0  0  0  0  0  0  0  0  0
   21.9433  -10.5134    0.0000 C   0  0  0  0  0  0  0  0  0  0  0  0
   20.7914   -8.5184    0.0000 C   0  0  0  0  0  0  0  0  0  0  0  0
   19.6396   -9.1834    0.0000 C   0  0  0  0  0  0  0  0  0  0  0  0
   19.6396  -10.5134    0.0000 C   0  0  0  0  0  0  0  0  0  0  0  0
  2  1  2  0  0  0  0
  3  2  1  0  0  0  0
  4  3  1  0  0  0  0
  5  4  1  0  0  0  0
  6  5  1  0  0  0  0
  2  7  1  0  0  0  0
  4  8  1  0  0  0  0
  6  9  1  0  0  0  0
 10 11  1  0  0  0  0
 10 12  2  0  0  0  0
 11  7  2  0  0  0  0
 12 13  1  0  0  0  0
  7 14  1  0  0  0  0
 13 14  2  0  0  0  0
 15 16  1  0  0  0  0
 15 17  2  0  0  0  0
 16  8  2  0  0  0  0
 17 18  1  0  0  0  0
  8 19  1  0  0  0  0
 18 19  2  0  0  0  0
 20 21  1  0  0  0  0
 20 22  2  0  0  0  0
 21  9  2  0  0  0  0
 22 23  1  0  0  0  0
  9 24  1  0  0  0  0
 23 24  2  0  0  0  0
M  END
>  <NAME>
2,4,6-Triphenyl-1-hexene

>  <POLYMER>
PS (4); SBMA (7)

>  <INCHIKEY>
VTFWGFWAVPVIAA-UHFFFAOYSA-N

>  <RETENTION INDEX>
SemiStdNP=2436.9

>  <FORMULA>
C24H24

>  <MW>
312

>  <EXACT MASS>
312.187801

>  <CASNO>
18964539

>  <ID>
71

>  <NUM PEAKS>
83

>  <MASS SPECTRAL PEAKS>
27 2
39 9
40 1
41 2
50 3
51 12
52 3
53 2
63 7
64 1
65 40
66 2
74 1
75 2
76 4
77 39
78 19
79 7
89 10
90 4
91 999
92 77
93 3
101 2
102 11
103 44
104 30
105 16
106 6
115 59
116 21
117 243
118 28
119 2
126 1
127 7
128 17
129 27
130 9
131 2
139 1
141 3
142 1
143 4
151 1
152 5
153 1
163 1
165 11
166 3
167 4
176 2
177 1
178 17
179 19
180 6
181 2
189 5
190 3
191 7
192 3
193 64
194 135
195 25
196 2
202 4
203 4
204 3
205 6
206 13
207 157
208 62
209 9
218 1
219 3
220 4
221 15
222 3
234 2
297 7
298 1
312 8
313 2

$$$$
2,4-DIPHENYL-1-BUTENE
  ACD/LABS04092416303D
CAS rn = 16606476, Library ID = 72
 16 17  0  0  0  0  0  0  0  0  1 V2000
   15.3417   -9.7347    0.0000 C   0  0  0  0  0  0  0  0  0  0  0  0
   14.0235  -10.4957    0.0000 C   0  0  0  0  0  0  0  0  0  0  0  0
   16.6599  -10.4957    0.0000 C   0  0  0  0  0  0  0  0  0  0  0  0
   17.9781   -9.7347    0.0000 C   0  0  0  0  0  0  0  0  0  0  0  0
   15.3417   -8.2126    0.0000 C   0  0  0  0  0  0  0  0  0  0  0  0
   17.9781   -8.2126    0.0000 C   0  0  0  0  0  0  0  0  0  0  0  0
   16.4936   -6.2176    0.0000 C   0  0  0  0  0  0  0  0  0  0  0  0
   16.4936   -7.5476    0.0000 C   0  0  0  0  0  0  0  0  0  0  0  0
   15.3417   -5.5526    0.0000 C   0  0  0  0  0  0  0  0  0  0  0  0
   14.1899   -6.2176    0.0000 C   0  0  0  0  0  0  0  0  0  0  0  0
   14.1899   -7.5476    0.0000 C   0  0  0  0  0  0  0  0  0  0  0  0
   19.1300   -6.2176    0.0000 C   0  0  0  0  0  0  0  0  0  0  0  0
   19.1300   -7.5476    0.0000 C   0  0  0  0  0  0  0  0  0  0  0  0
   17.9781   -5.5526    0.0000 C   0  0  0  0  0  0  0  0  0  0  0  0
   16.8263   -6.2176    0.0000 C   0  0  0  0  0  0  0  0  0  0  0  0
   16.8263   -7.5476    0.0000 C   0  0  0  0  0  0  0  0  0  0  0  0
  1  2  2  0  0  0  0
  1  3  1  0  0  0  0
  3  4  1  0  0  0  0
  1  5  1  0  0  0  0
  4  6  1  0  0  0  0
  7  8  1  0  0  0  0
  7  9  2  0  0  0  0
  8  5  2  0  0  0  0
  9 10  1  0  0  0  0
  5 11  1  0  0  0  0
 10 11  2  0  0  0  0
 12 13  1  0  0  0  0
 12 14  2  0  0  0  0
 13  6  2  0  0  0  0
 14 15  1  0  0  0  0
  6 16  1  0  0  0  0
 15 16  2  0  0  0  0
M  END
>  <NAME>
2,4-Diphenyl-1-butene

>  <POLYMER>
PS (4); SBMA (7)

>  <INCHIKEY>
PWSZACWUDDFZMQ-UHFFFAOYSA-N

>  <RETENTION INDEX>
SemiStdNP=1717.1

>  <FORMULA>
C16H16

>  <MW>
208

>  <EXACT MASS>
208.1252

>  <CASNO>
16606476

>  <ID>
72

>  <NUM PEAKS>
81

>  <MASS SPECTRAL PEAKS>
20 1
22 1
26 1
27 5
37 1
38 1
39 26
40 2
41 8
50 10
51 36
52 9
53 4
62 3
63 21
64 4
65 92
66 6
74 5
75 7
76 11
77 57
78 22
79 6
87 2
88 2
89 22
90 5
91 999
92 76
93 2
94 1
101 4
102 17
103 31
104 196
105 22
106 1
113 1
114 1
115 128
116 28
117 100
118 10
126 1
127 9
128 19
129 25
130 162
131 22
132 1
139 1
140 1
151 2
152 6
153 2
154 2
165 14
166 3
167 6
168 1
176 2
178 22
179 20
180 20
181 3
189 7
190 3
191 8
192 4
193 74
194 15
200 1
202 5
203 3
204 1
205 1
207 14
208 136
209 24
210 1

$$$$
STYRENE
  -NISTMS-12099911132D 1   1.0         0.0          
CAS rn = 100425, Library ID = 73
  8  8  0  0  0  0  0  0  0  0  0
   -1.4226    0.9755    0.0000 C   0  0  0     0  0  0  0  0  0
   -0.6503    1.3819    0.0000 C   0  0  0     0  0  0  0  0  0
    0.0406    0.9755    0.0000 C   0  0  0     0  0  0  0  0  0
    0.7723    1.3819    0.0000 C   0  0  0     0  0  0  0  0  0
    0.0406    0.2032    0.0000 C   0  0  0     0  0  0  0  0  0
    1.4632    0.9755    0.0000 C   0  0  0     0  0  0  0  0  0
    0.7723   -0.2032    0.0000 C   0  0  0     0  0  0  0  0  0
    1.4632    0.2032    0.0000 C   0  0  0     0  0  0  0  0  0
  1  2  2  0  0  0  0
  2  3  1  0  0  0  0
  3  4  2  0  0  0  0
  3  5  1  0  0  0  0
  4  6  1  0  0  0  0
  5  7  2  0  0  0  0
  6  8  2  0  0  0  0
  7  8  1  0  0  0  0
>  <NAME>
Styrene

>  <POLYMER>
PS (4); SBMA (7)

>  <INCHIKEY>
PPBRXRYQALVLMV-UHFFFAOYSA-N

>  <RETENTION INDEX>
SemiStdNP=892.7

>  <FORMULA>
C8H8

>  <MW>
104

>  <EXACT MASS>
104.0626

>  <CASNO>
100425

>  <ID>
73

>  <NUM PEAKS>
37

>  <MASS SPECTRAL PEAKS>
26 2
27 9
37 6
38 9
39 33
40 1
49 7
50 64
51 145
52 50
53 7
61 8
62 17
63 44
64 6
65 10
73 7
74 40
75 27
76 36
77 172
78 343
79 22
85 2
86 4
87 5
89 17
90 1
97 2
98 8
99 2
101 9
102 78
103 524
104 999
105 85
106 3

$$$$
BISPHENOL A
  ACD/LABS04102410112D
CAS rn = 80057, Library ID = 74
 17 18  0  0  0  0  0  0  0  0  1 V2000
   10.6843   -5.1781    0.0000 C   0  0  0  0  0  0  0  0  0  0  0  0
   10.6843   -6.5081    0.0000 C   0  0  0  0  0  0  0  0  0  0  0  0
   10.6843   -7.8381    0.0000 C   0  0  0  0  0  0  0  0  0  0  0  0
   12.0143   -6.5081    0.0000 C   0  0  0  0  0  0  0  0  0  0  0  0
    9.3543   -6.5081    0.0000 C   0  0  0  0  0  0  0  0  0  0  0  0
   12.6793   -5.3563    0.0000 C   0  0  0  0  0  0  0  0  0  0  0  0
   12.6793   -7.6599    0.0000 C   0  0  0  0  0  0  0  0  0  0  0  0
    8.6893   -7.6599    0.0000 C   0  0  0  0  0  0  0  0  0  0  0  0
    8.6893   -5.3563    0.0000 C   0  0  0  0  0  0  0  0  0  0  0  0
   14.0093   -5.3563    0.0000 C   0  0  0  0  0  0  0  0  0  0  0  0
   14.0093   -7.6599    0.0000 C   0  0  0  0  0  0  0  0  0  0  0  0
    7.3593   -7.6599    0.0000 C   0  0  0  0  0  0  0  0  0  0  0  0
    7.3593   -5.3563    0.0000 C   0  0  0  0  0  0  0  0  0  0  0  0
   14.6743   -6.5081    0.0000 C   0  0  0  0  0  0  0  0  0  0  0  0
   16.0043   -6.5081    0.0000 O   0  0  0  0  0  0  0  0  0  0  0  0
    6.6943   -6.5081    0.0000 C   0  0  0  0  0  0  0  0  0  0  0  0
    5.3643   -6.5081    0.0000 O   0  0  0  0  0  0  0  0  0  0  0  0
  1  2  1  0  0  0  0
  2  3  1  0  0  0  0
  2  4  1  0  0  0  0
  2  5  1  0  0  0  0
  4  6  2  0  0  0  0
  4  7  1  0  0  0  0
  5  8  2  0  0  0  0
  5  9  1  0  0  0  0
  6 10  1  0  0  0  0
  7 11  2  0  0  0  0
  8 12  1  0  0  0  0
  9 13  2  0  0  0  0
 10 14  2  0  0  0  0
 11 14  1  0  0  0  0
 12 16  2  0  0  0  0
 13 16  1  0  0  0  0
 14 15  1  0  0  0  0
 16 17  1  0  0  0  0
M  END
>  <NAME>
Bisphenol A

>  <INCHIKEY>
IISBACLAFKSPIT-UHFFFAOYSA-N

>  <RETENTION INDEX>
SemiStdNP=2169

>  <POLYMER>
PC (10)

>  <FORMULA>
C15H16O2

>  <MW>
228

>  <EXACT MASS>
228.115029

>  <CASNO>
80057

>  <ID>
74

>  <NUM PEAKS>
118

>  <MASS SPECTRAL PEAKS>
27 4
29 1
38 2
39 21
40 2
41 13
43 3
50 3
51 11
52 3
53 9
55 13
62 3
63 14
64 5
65 39
66 5
69 1
70 2
72 1
74 2
75 7
76 11
77 28
78 4
79 8
81 2
82 13
83 2
84 8
85 1
87 2
88 4
89 12
90 18
91 80
92 7
93 2
94 9
95 11
97 10
98 5
99 39
100 4
101 6
102 4
103 6
104 2
105 10
106 17
107 36
108 3
113 2
114 6
115 22
116 4
118 9
119 174
120 25
126 2
127 8
128 11
129 4
131 7
132 1
133 3
134 4
135 33
136 4
139 11
140 3
141 12
142 2
144 5
145 6
150 1
151 8
152 23
153 14
154 3
155 5
157 9
158 3
163 2
164 4
165 41
166 12
167 11
168 13
169 23
170 7
171 3
176 6
177 14
178 4
181 19
182 6
183 13
184 8
185 3
187 1
193 7
194 8
195 23
196 6
197 79
198 32
199 10
210 2
211 17
212 69
213 999
214 150
215 16
227 1
228 140
229 23
230 2

$$$$
BISPHENOL E
  ACD/LABS04102410032D
CAS rn = 2081085, Library ID = 75
 16 17  0  0  0  0  0  0  0  0  1 V2000
   10.3257   -4.2079    0.0000 C   0  0  0  0  0  0  0  0  0  0  0  0
   11.4775   -4.8729    0.0000 C   0  0  0  0  0  0  0  0  0  0  0  0
   10.3257   -2.8779    0.0000 C   0  0  0  0  0  0  0  0  0  0  0  0
    9.1738   -4.8729    0.0000 C   0  0  0  0  0  0  0  0  0  0  0  0
   12.6293   -4.2079    0.0000 C   0  0  0  0  0  0  0  0  0  0  0  0
   11.4775   -6.2029    0.0000 C   0  0  0  0  0  0  0  0  0  0  0  0
    9.1738   -6.2029    0.0000 C   0  0  0  0  0  0  0  0  0  0  0  0
    8.0220   -4.2079    0.0000 C   0  0  0  0  0  0  0  0  0  0  0  0
   13.7811   -4.8729    0.0000 C   0  0  0  0  0  0  0  0  0  0  0  0
   12.6293   -6.8679    0.0000 C   0  0  0  0  0  0  0  0  0  0  0  0
    8.0220   -6.8679    0.0000 C   0  0  0  0  0  0  0  0  0  0  0  0
    6.8702   -4.8729    0.0000 C   0  0  0  0  0  0  0  0  0  0  0  0
   13.7811   -6.2029    0.0000 C   0  0  0  0  0  0  0  0  0  0  0  0
   14.9329   -6.8679    0.0000 O   0  0  0  0  0  0  0  0  0  0  0  0
    6.8702   -6.2029    0.0000 C   0  0  0  0  0  0  0  0  0  0  0  0
    5.7184   -6.8679    0.0000 O   0  0  0  0  0  0  0  0  0  0  0  0
  1  2  1  0  0  0  0
  1  3  1  0  0  0  0
  1  4  1  0  0  0  0
  2  5  2  0  0  0  0
  2  6  1  0  0  0  0
  4  7  2  0  0  0  0
  4  8  1  0  0  0  0
  5  9  1  0  0  0  0
  6 10  2  0  0  0  0
  7 11  1  0  0  0  0
  8 12  2  0  0  0  0
  9 13  2  0  0  0  0
 10 13  1  0  0  0  0
 11 15  2  0  0  0  0
 12 15  1  0  0  0  0
 13 14  1  0  0  0  0
 15 16  1  0  0  0  0
M  END
>  <NAME>
Bisphenol E

>  <INCHIKEY>
HCNHNBLSNVSJTJ-UHFFFAOYSA-N

>  <RETENTION INDEX>
SemiStdNP=2109.5

>  <POLYMER>
PC (10)

>  <FORMULA>
C14H14O2

>  <MW>
214

>  <EXACT MASS>
214.09938

>  <CASNO>
2081085

>  <ID>
75

>  <NUM PEAKS>
33

>  <MASS SPECTRAL PEAKS>
37 10
39 19
40 7
50 7
53 14
55 37
63 9
65 25
77 42
91 41
99 22
103 10
115 30
119 20
120 17
121 26
128 19
131 8
139 11
141 13
152 48
153 32
169 32
170 13
181 94
182 15
197 30
198 22
199 999
200 144
201 10
214 217
215 30

$$$$
P-CUMYLPHENOL
  -NISTMS-12099911132D 1   1.0         0.0          
CAS rn = 4286231, Library ID = 76
 16 17  0  0  0  0  0  0  0  0  0
    0.0000   -0.6064    0.0000 C   0  0  0     0  0  0  0  0  0
    0.6873   -1.0107    0.0000 C   0  0  0     0  0  0  0  0  0
   -0.6873    2.2236    0.0000 C   0  0  0     0  0  0  0  0  0
    0.0000    2.6278    0.0000 C   0  0  0     0  0  0  0  0  0
   -0.6873   -1.0107    0.0000 C   0  0  0     0  0  0  0  0  0
    0.0000    0.2021    0.0000 C   0  0  0     0  0  0  0  0  0
    0.6873   -1.8193    0.0000 C   0  0  0     0  0  0  0  0  0
   -0.7277   -1.8193    0.0000 C   0  0  0     0  0  0  0  0  0
    0.0000    1.0511    0.0000 C   0  0  0     0  0  0  0  0  0
    0.8086    0.2021    0.0000 C   0  0  0     0  0  0  0  0  0
   -0.8086    0.2021    0.0000 C   0  0  0     0  0  0  0  0  0
    0.0000   -2.2640    0.0000 C   0  0  0     0  0  0  0  0  0
   -0.6873    1.4554    0.0000 C   0  0  0     0  0  0  0  0  0
    0.7277    2.2236    0.0000 C   0  0  0     0  0  0  0  0  0
    0.0000    3.4768    0.0000 O   0  0  0     0  2  0  0  0  0
    0.7277    1.4554    0.0000 C   0  0  0     0  0  0  0  0  0
  1  2  2  0  0  0  0
  1  5  1  0  0  0  0
  1  6  1  0  0  0  0
  2  7  1  0  0  0  0
  3  4  2  0  0  0  0
  3 13  1  0  0  0  0
  4 14  1  0  0  0  0
  4 15  1  0  0  0  0
  5  8  2  0  0  0  0
  6  9  1  0  0  0  0
  6 10  1  0  0  0  0
  6 11  1  0  0  0  0
  7 12  2  0  0  0  0
  8 12  1  0  0  0  0
  9 16  1  0  0  0  0
  9 13  2  0  0  0  0
 14 16  2  0  0  0  0
>  <NAME>
p-Cumylphenol

>  <INCHIKEY>
QBDSZLJBMIMQRS-UHFFFAOYSA-N

>  <RETENTION INDEX>
SemiStdNP=1849.2

>  <POLYMER>
PC (10)

>  <FORMULA>
C15H16O

>  <MW>
212

>  <EXACT MASS>
212.120115

>  <CASNO>
4286231

>  <ID>
76

>  <NUM PEAKS>
32

>  <MASS SPECTRAL PEAKS>
39 35
41 31
51 35
55 7
65 35
76 23
77 106
82 10
89 23
91 174
103 192
107 40
115 38
119 99
126 8
133 24
135 66
141 12
152 38
153 32
154 17
165 42
166 6
178 45
179 63
181 51
182 72
183 32
197 999
198 200
212 177
213 13

$$$$
P-ISOPROPENYLPHENOL
  ACD/LABS04102409522D
CAS rn = 4286231, Library ID = 77
 10 10  0  0  0  0  0  0  0  0  1 V2000
    8.3896   -1.1173    0.0000 O   0  0  0  0  0  0  0  0  0  0  0  0
    8.3896   -2.4473    0.0000 C   0  0  0  0  0  0  0  0  0  0  0  0
    9.5200   -3.1122    0.0000 C   0  0  0  0  0  0  0  0  0  0  0  0
    7.2591   -3.1122    0.0000 C   0  0  0  0  0  0  0  0  0  0  0  0
    9.5200   -4.4422    0.0000 C   0  0  0  0  0  0  0  0  0  0  0  0
    7.2591   -4.4422    0.0000 C   0  0  0  0  0  0  0  0  0  0  0  0
    8.3896   -5.1073    0.0000 C   0  0  0  0  0  0  0  0  0  0  0  0
    8.3896   -6.4373    0.0000 C   0  0  0  0  0  0  0  0  0  0  0  0
    9.5200   -7.1687    0.0000 C   0  0  0  0  0  0  0  0  0  0  0  0
    7.2591   -7.1687    0.0000 C   0  0  0  0  0  0  0  0  0  0  0  0
  1  2  1  0  0  0  0
  2  3  2  0  0  0  0
  2  4  1  0  0  0  0
  3  5  1  0  0  0  0
  4  6  2  0  0  0  0
  5  7  2  0  0  0  0
  6  7  1  0  0  0  0
  7  8  1  0  0  0  0
  8  9  1  0  0  0  0
  8 10  2  0  0  0  0
M  END
>  <NAME>
p-Isopropenylphenol

>  <INCHIKEY>
JAGRUUPXPPLSRX-UHFFFAOYSA-N

>  <RETENTION INDEX>
SemiStdNP=1297.3

>  <POLYMER>
PC (10)

>  <FORMULA>
C9H10O

>  <MW>
134

>  <EXACT MASS>
134.073165

>  <CASNO>
4286231

>  <ID>
77

>  <NUM PEAKS>
40

>  <MASS SPECTRAL PEAKS>
21 5
27 34
38 17
39 111
40 14
41 12
45 9
50 32
51 86
52 18
53 27
55 22
60 7
62 21
63 68
64 16
65 151
66 65
74 14
75 14
77 111
78 30
79 44
89 44
91 277
92 20
94 119
103 34
105 73
107 76
115 36
116 9
117 15
118 12
119 784
120 73
131 25
133 194
134 999
135 110

$$$$
P-TERT-BUTYLPHENOL
  ACD/LABS04102409492D
CAS rn = 98544, Library ID = 78
 11 11  0  0  0  0  0  0  0  0  1 V2000
   12.0281   -8.5806    0.0000 C   0  0  0  0  0  0  0  0  0  0  0  0
   10.6981   -8.5806    0.0000 C   0  0  0  0  0  0  0  0  0  0  0  0
    9.3681   -8.5806    0.0000 C   0  0  0  0  0  0  0  0  0  0  0  0
   10.6981   -9.9106    0.0000 C   0  0  0  0  0  0  0  0  0  0  0  0
   10.6981   -7.2506    0.0000 C   0  0  0  0  0  0  0  0  0  0  0  0
    9.5676   -6.5855    0.0000 C   0  0  0  0  0  0  0  0  0  0  0  0
   11.8286   -6.5855    0.0000 C   0  0  0  0  0  0  0  0  0  0  0  0
    9.5676   -5.1891    0.0000 C   0  0  0  0  0  0  0  0  0  0  0  0
   11.8286   -5.1891    0.0000 C   0  0  0  0  0  0  0  0  0  0  0  0
   10.6981   -4.5240    0.0000 C   0  0  0  0  0  0  0  0  0  0  0  0
   10.6981   -3.1940    0.0000 O   0  0  0  0  0  0  0  0  0  0  0  0
  1  2  1  0  0  0  0
  2  3  1  0  0  0  0
  2  4  1  0  0  0  0
  2  5  1  0  0  0  0
  5  6  2  0  0  0  0
  5  7  1  0  0  0  0
  6  8  1  0  0  0  0
  7  9  2  0  0  0  0
  8 10  2  0  0  0  0
  9 10  1  0  0  0  0
 10 11  1  0  0  0  0
M  END
>  <NAME>
p-tert-Butylphenol

>  <INCHIKEY>
QHPQWRBYOIRBIT-UHFFFAOYSA-N

>  <RETENTION INDEX>
SemiStdNP=1287.6

>  <POLYMER>
PC (10)

>  <FORMULA>
C10H14O

>  <MW>
150

>  <EXACT MASS>
150.1044655

>  <CASNO>
98544

>  <ID>
78

>  <NUM PEAKS>
32

>  <MASS SPECTRAL PEAKS>
24 3
27 16
29 13
39 65
41 116
50 6
51 28
52 7
53 11
55 10
63 14
65 50
75 3
77 87
78 13
79 23
89 6
91 84
94 12
95 139
105 8
107 350
108 23
115 16
119 36
120 11
133 7
134 12
135 999
136 105
150 190
151 18

$$$$
P-ISOPROPYLPHENOL
  -NISTMS-12099911132D 1   1.0         0.0          
CAS rn = 99898, Library ID = 79
 10 10  0  0  0  0  0  0  0  0  0
   -0.6870   -1.2123    0.0000 C   0  0  0     0  0  0  0  0  0
    0.0404   -0.8082    0.0000 C   0  0  0     0  0  0  0  0  0
    0.0404    2.4246    0.0000 O   0  0  0     0  2  0  0  0  0
    0.0404    1.6164    0.0000 C   0  0  0     0  0  0  0  0  0
    0.7274   -1.2123    0.0000 C   0  0  0     0  0  0  0  0  0
    0.0404   -0.0000    0.0000 C   0  0  0     0  0  0  0  0  0
    0.7274    0.4041    0.0000 C   0  0  0     0  0  0  0  0  0
   -0.6870    0.4041    0.0000 C   0  0  0     0  0  0  0  0  0
    0.7274    1.2123    0.0000 C   0  0  0     0  0  0  0  0  0
   -0.6870    1.2123    0.0000 C   0  0  0     0  0  0  0  0  0
  1  2  1  0  0  0  0
  2  5  1  0  0  0  0
  2  6  1  0  0  0  0
  3  4  1  0  0  0  0
  4  9  2  0  0  0  0
  4 10  1  0  0  0  0
  6  7  2  0  0  0  0
  6  8  1  0  0  0  0
  7  9  1  0  0  0  0
  8 10  2  0  0  0  0
>  <NAME>
p-Isopropylphenol

>  <INCHIKEY>
YQUQWHNMBPIWGK-UHFFFAOYSA-N

>  <RETENTION INDEX>
SemiStdNP=1221.3

>  <POLYMER>
PC (10)

>  <FORMULA>
C9H12O

>  <MW>
136

>  <EXACT MASS>
136.088815

>  <CASNO>
99898

>  <ID>
79

>  <NUM PEAKS>
18

>  <MASS SPECTRAL PEAKS>
15 11
30 15
39 59
41 36
51 31
63 13
65 59
77 174
78 27
91 162
93 56
103 163
107 23
120 24
121 999
122 106
136 292
137 31

$$$$
P-VINYLPHENOL
  ACD/LABS04092417112D
CAS rn = 2628173, Library ID = 80
  9  9  0  0  0  0  0  0  0  0  1 V2000
   12.8432   -4.5625    0.0000 O   0  0  0  0  0  0  0  0  0  0  0  0
   12.8432   -5.8925    0.0000 C   0  0  0  0  0  0  0  0  0  0  0  0
   13.9950   -6.5575    0.0000 C   0  0  0  0  0  0  0  0  0  0  0  0
   11.6914   -6.5575    0.0000 C   0  0  0  0  0  0  0  0  0  0  0  0
   13.9950   -7.8875    0.0000 C   0  0  0  0  0  0  0  0  0  0  0  0
   12.8432   -8.5525    0.0000 C   0  0  0  0  0  0  0  0  0  0  0  0
   11.6914   -7.8875    0.0000 C   0  0  0  0  0  0  0  0  0  0  0  0
   12.8432   -9.8825    0.0000 C   0  0  0  0  0  0  0  0  0  0  0  0
   13.9950  -10.5475    0.0000 C   0  0  0  0  0  0  0  0  0  0  0  0
  1  2  1  0  0  0  0
  2  3  2  0  0  0  0
  2  4  1  0  0  0  0
  3  5  1  0  0  0  0
  4  7  2  0  0  0  0
  5  6  2  0  0  0  0
  6  7  1  0  0  0  0
  6  8  1  0  0  0  0
  8  9  2  0  0  0  0
M  END
>  <NAME>
p-Vinylphenol

>  <INCHIKEY>
FUGYGGDSWSUORM-UHFFFAOYSA-N

>  <RETENTION INDEX>
SemiStdNP=1213.5

>  <POLYMER>
PC (10)

>  <FORMULA>
C8H8O

>  <MW>
120

>  <EXACT MASS>
120.0575147

>  <CASNO>
2628173

>  <ID>
80

>  <NUM PEAKS>
33

>  <MASS SPECTRAL PEAKS>
27 18
29 7
31 7
38 21
39 107
41 6
45 9
46 9
50 31
51 51
52 17
53 17
55 20
59 15
60 28
61 9
62 32
63 68
64 8
65 139
66 19
75 8
77 21
89 35
90 9
91 393
92 40
94 73
105 11
118 12
119 262
120 999
121 94

$$$$
P-ETHYLPHENOL
  ACD/LABS04092417082D
CAS rn = 123079, Library ID = 81
  9  9  0  0  0  0  0  0  0  0  1 V2000
   10.1175   -9.6103    0.0000 C   0  0  0  0  0  0  0  0  0  0  0  0
    8.9710   -8.9359    0.0000 C   0  0  0  0  0  0  0  0  0  0  0  0
    8.9710   -7.5872    0.0000 C   0  0  0  0  0  0  0  0  0  0  0  0
    7.8246   -6.9130    0.0000 C   0  0  0  0  0  0  0  0  0  0  0  0
   10.1175   -6.9130    0.0000 C   0  0  0  0  0  0  0  0  0  0  0  0
    7.8246   -5.5644    0.0000 C   0  0  0  0  0  0  0  0  0  0  0  0
   10.1175   -5.5644    0.0000 C   0  0  0  0  0  0  0  0  0  0  0  0
    8.9710   -4.8901    0.0000 C   0  0  0  0  0  0  0  0  0  0  0  0
    8.9710   -3.5415    0.0000 O   0  0  0  0  0  0  0  0  0  0  0  0
  1  2  1  0  0  0  0
  2  3  1  0  0  0  0
  3  4  2  0  0  0  0
  3  5  1  0  0  0  0
  4  6  1  0  0  0  0
  5  7  2  0  0  0  0
  6  8  2  0  0  0  0
  7  8  1  0  0  0  0
  8  9  1  0  0  0  0
M  END
>  <NAME>
p-Ethylphenol

>  <INCHIKEY>
HXDOZKJGKXYMEW-UHFFFAOYSA-N

>  <RETENTION INDEX>
SemiStdNP=1161.7

>  <POLYMER>
PC (10)

>  <FORMULA>
C8H10O

>  <MW>
122

>  <EXACT MASS>
122.073165

>  <CASNO>
123079

>  <ID>
81

>  <NUM PEAKS>
36

>  <MASS SPECTRAL PEAKS>
27 18
31 1
35 3
38 5
39 57
40 5
41 9
42 5
50 14
51 42
52 14
53 30
55 15
56 3
60 5
62 9
63 18
65 32
66 4
74 5
77 148
78 27
79 23
81 5
89 5
91 43
94 8
103 20
107 999
108 84
112 2
119 3
120 5
121 27
122 342
123 30

$$$$
P-CRESOL
  ACD/LABS04092417032D
Library ID = 82
  8  8  0  0  0  0  0  0  0  0  1 V2000
    8.2306   -9.3385    0.0000 C   0  0  0  0  0  0  0  0  0  0  0  0
    8.2306   -8.0085    0.0000 C   0  0  0  0  0  0  0  0  0  0  0  0
    9.3824   -7.3435    0.0000 C   0  0  0  0  0  0  0  0  0  0  0  0
    7.0788   -7.3435    0.0000 C   0  0  0  0  0  0  0  0  0  0  0  0
    9.3824   -6.0135    0.0000 C   0  0  0  0  0  0  0  0  0  0  0  0
    7.0788   -6.0135    0.0000 C   0  0  0  0  0  0  0  0  0  0  0  0
    8.2306   -5.3485    0.0000 C   0  0  0  0  0  0  0  0  0  0  0  0
    8.2306   -4.0185    0.0000 O   0  0  0  0  0  0  0  0  0  0  0  0
  1  2  1  0  0  0  0
  2  3  2  0  0  0  0
  2  4  1  0  0  0  0
  3  5  1  0  0  0  0
  4  6  2  0  0  0  0
  5  7  2  0  0  0  0
  6  7  1  0  0  0  0
  7  8  1  0  0  0  0
M  END
>  <NAME>
p-Cresol

>  <INCHIKEY>
IWDCLRJOBJJRNH-UHFFFAOYSA-N

>  <RETENTION INDEX>
SemiStdNP=1071.8

>  <POLYMER>
PC (10)

>  <FORMULA>
C7H8O

>  <MW>
108

>  <EXACT MASS>
108.0575147

>  <ID>
82

>  <NUM PEAKS>
38

>  <MASS SPECTRAL PEAKS>
26 10
27 49
29 12
37 6
38 19
39 81
40 7
43 2
49 7
50 49
51 84
52 42
53 91
54 29
55 26
57 2
61 7
62 18
63 39
64 7
65 19
66 6
68 5
74 9
77 220
78 50
79 158
80 66
81 9
88 2
89 28
90 84
91 45
105 9
106 4
107 999
108 832
109 65

$$$$
PHENOL
  -NISTMS-12099911132D 1   1.0         0.0          
CAS rn = 108952, Library ID = 83
  7  7  0  0  0  0  0  0  0  0  0
   -0.7288    0.5668    0.0000 C   0  0  0     0  0  0  0  0  0
    0.0405    0.9717    0.0000 C   0  0  0     0  0  0  0  0  0
   -0.7288   -0.2024    0.0000 C   0  0  0     0  0  0  0  0  0
    0.7288    0.5668    0.0000 C   0  0  0     0  0  0  0  0  0
    0.0405    1.7815    0.0000 O   0  0  0     0  2  0  0  0  0
    0.0405   -0.6073    0.0000 C   0  0  0     0  0  0  0  0  0
    0.7288   -0.2024    0.0000 C   0  0  0     0  0  0  0  0  0
  1  2  2  0  0  0  0
  1  3  1  0  0  0  0
  2  4  1  0  0  0  0
  2  5  1  0  0  0  0
  3  6  2  0  0  0  0
  4  7  2  0  0  0  0
  6  7  1  0  0  0  0
>  <NAME>
Phenol

>  <INCHIKEY>
ISWSIDIOOBJBQZ-UHFFFAOYSA-N

>  <RETENTION INDEX>
SemiStdNP=978.6

>  <POLYMER>
PC (10)

>  <FORMULA>
C6H6O

>  <MW>
94

>  <EXACT MASS>
94.041865

>  <CASNO>
108952

>  <ID>
83

>  <NUM PEAKS>
37

>  <MASS SPECTRAL PEAKS>
26 7
27 19
29 10
31 8
37 24
38 49
39 158
40 83
42 6
43 4
46 8
47 41
49 7
50 45
51 41
52 11
53 31
54 3
55 74
61 15
62 26
63 52
64 17
65 200
66 256
67 15
68 9
69 3
73 3
74 19
75 4
76 6
77 7
79 8
93 19
94 999
95 64

$$$$
NAPHTHALENE
  -NISTMS-12099911132D 1   1.0         0.0          
CAS rn = 91203, Library ID = 84
 10 11  0  0  0  0  0  0  0  0  0
   -1.3767    1.0528    0.0000 C   0  0  0     0  0  0  0  0  0
   -1.3767    0.2025    0.0000 C   0  0  0     0  0  0  0  0  0
   -0.6883    1.4172    0.0000 C   0  0  0     0  0  0  0  0  0
   -0.6883   -0.2025    0.0000 C   0  0  0     0  0  0  0  0  0
    0.0405    1.0528    0.0000 C   0  0  0     0  0  0  0  0  0
    0.0405    0.2025    0.0000 C   0  0  0     0  0  0  0  0  0
    0.7288   -0.2025    0.0000 C   0  0  0     0  0  0  0  0  0
    0.7288    1.4172    0.0000 C   0  0  0     0  0  0  0  0  0
    1.4172    1.0528    0.0000 C   0  0  0     0  0  0  0  0  0
    1.4172    0.2025    0.0000 C   0  0  0     0  0  0  0  0  0
  1  2  2  0  0  0  0
  1  3  1  0  0  0  0
  2  4  1  0  0  0  0
  3  5  2  0  0  0  0
  4  6  2  0  0  0  0
  5  8  1  0  0  0  0
  5  6  1  0  0  0  0
  6  7  1  0  0  0  0
  7 10  2  0  0  0  0
  8  9  2  0  0  0  0
  9 10  1  0  0  0  0
>  <NAME>
Naphthalene

>  <INCHIKEY>
UFWIBTONFRDIAS-UHFFFAOYSA-N

>  <RETENTION INDEX>
SemiStdNP=1184.1

>  <POLYMER>
PVC (5)

>  <FORMULA>
C10H8

>  <MW>
128

>  <EXACT MASS>
128.0626

>  <CASNO>
91203

>  <ID>
84

>  <NUM PEAKS>
33

>  <MASS SPECTRAL PEAKS>
27 3
37 2
38 3
39 15
48 2
49 2
50 29
51 69
52 8
61 4
62 13
63 55
64 68
65 2
67 2
73 2
74 32
75 35
76 28
77 42
78 23
86 6
87 9
89 5
98 9
100 2
101 28
102 68
103 5
126 70
127 130
128 999
129 105

$$$$
3-METHYLINDENE
  -NISTMS-12099911132D 1   1.0         0.0          
Library ID = 85
 10 11  0  0  0  0  0  0  0  0  0
    1.1348    1.7427    0.0000 C   0  0  0     0  0  0  0  0  0
    0.8916    0.9727    0.0000 C   0  0  0     0  0  0  0  0  0
    0.1216    0.6890    0.0000 C   0  0  0     0  0  0  0  0  0
    1.3374    0.3242    0.0000 C   0  0  0     0  0  0  0  0  0
    0.1216   -0.1216    0.0000 C   0  0  0     0  0  0  0  0  0
   -0.5674    1.0943    0.0000 C   0  0  0     0  0  0  0  0  0
    0.8916   -0.3648    0.0000 C   0  0  0     0  0  0  0  0  0
   -0.5674   -0.5269    0.0000 C   0  0  0     0  0  0  0  0  0
   -1.2969    0.6890    0.0000 C   0  0  0     0  0  0  0  0  0
   -1.2969   -0.1216    0.0000 C   0  0  0     0  0  0  0  0  0
  1  2  1  0  0  0  0
  2  3  1  0  0  0  0
  2  4  2  0  0  0  0
  3  5  2  0  0  0  0
  3  6  1  0  0  0  0
  4  7  1  0  0  0  0
  5  8  1  0  0  0  0
  5  7  1  0  0  0  0
  6  9  2  0  0  0  0
  8 10  2  0  0  0  0
  9 10  1  0  0  0  0
>  <NAME>
3-Methylindene

>  <INCHIKEY>
COOKKJGOGWACMY-UHFFFAOYSA-N

>  <POLYMER>
PVC (5)

>  <RETENTION INDEX>
SemiStdNP=1163.3

>  <FORMULA>
C10H10

>  <MW>
130

>  <EXACT MASS>
130.07825

>  <ID>
85

>  <NUM PEAKS>
23

>  <MASS SPECTRAL PEAKS>
15 9
39 44
47 18
50 34
51 125
63 135
64 128
65 46
75 19
76 12
77 93
78 40
89 21
102 78
105 61
115 508
116 58
126 62
127 257
128 565
129 999
130 989
131 108

$$$$
INDENE
  ACD/LABS04102415572D
CAS rn = 95136, Library ID = 86
  9 10  0  0  0  0  0  0  0  0  1 V2000
   13.7754   -4.1568    0.0000 C   0  0  0  0  0  0  0  0  0  0  0  0
   14.5571   -5.2328    0.0000 C   0  0  0  0  0  0  0  0  0  0  0  0
   12.5105   -4.5678    0.0000 C   0  0  0  0  0  0  0  0  0  0  0  0
   13.7754   -6.3088    0.0000 C   0  0  0  0  0  0  0  0  0  0  0  0
   12.5105   -5.8978    0.0000 C   0  0  0  0  0  0  0  0  0  0  0  0
   11.3587   -3.9028    0.0000 C   0  0  0  0  0  0  0  0  0  0  0  0
   11.3587   -6.5628    0.0000 C   0  0  0  0  0  0  0  0  0  0  0  0
   10.2069   -4.5678    0.0000 C   0  0  0  0  0  0  0  0  0  0  0  0
   10.2069   -5.8978    0.0000 C   0  0  0  0  0  0  0  0  0  0  0  0
  1  2  2  0  0  0  0
  1  3  1  0  0  0  0
  2  4  1  0  0  0  0
  3  5  2  0  0  0  0
  3  6  1  0  0  0  0
  4  5  1  0  0  0  0
  5  7  1  0  0  0  0
  6  8  2  0  0  0  0
  7  9  2  0  0  0  0
  8  9  1  0  0  0  0
M  END
>  <NAME>
Indene

>  <INCHIKEY>
YBYIRNPNPLQARY-UHFFFAOYSA-N

>  <POLYMER>
PVC (5)

>  <RETENTION INDEX>
SemiStdNP=1042

>  <FORMULA>
C9H8

>  <MW>
116

>  <EXACT MASS>
116.0626

>  <CASNO>
95136

>  <ID>
86

>  <NUM PEAKS>
23

>  <MASS SPECTRAL PEAKS>
26 11
27 12
39 43
49 11
50 39
51 24
56 13
57 94
58 49
62 37
63 95
64 15
65 28
74 21
75 11
87 14
89 114
109 11
113 15
114 28
115 999
116 870
117 87

$$$$
TOLUENE
  -NISTMS-12099911132D 1   1.0         0.0          
CAS rn = 108883, Library ID = 87
  7  7  0  0  0  0  0  0  0  0  0
   -0.6920    0.6106    0.0000 C   0  0  0     0  0  0  0  0  0
    0.0000    1.0177    0.0000 C   0  0  0     0  0  0  0  0  0
   -0.6920   -0.2035    0.0000 C   0  0  0     0  0  0  0  0  0
    0.7327    0.6106    0.0000 C   0  0  0     0  0  0  0  0  0
    0.0000    1.7912    0.0000 C   0  0  0     0  0  0  0  0  0
    0.0000   -0.6106    0.0000 C   0  0  0     0  0  0  0  0  0
    0.7327   -0.2035    0.0000 C   0  0  0     0  0  0  0  0  0
  1  2  2  0  0  0  0
  1  3  1  0  0  0  0
  2  4  1  0  0  0  0
  2  5  1  0  0  0  0
  3  6  2  0  0  0  0
  4  7  2  0  0  0  0
  6  7  1  0  0  0  0
>  <NAME>
Toluene

>  <POLYMER>
PVC (5); PS (4)

>  <INCHIKEY>
YXFVVABEGXRONW-UHFFFAOYSA-N

>  <RETENTION INDEX>
SemiStdNP=759.4

>  <FORMULA>
C7H8

>  <MW>
92

>  <EXACT MASS>
92.0626

>  <CASNO>
108883

>  <ID>
87

>  <NUM PEAKS>
32

>  <MASS SPECTRAL PEAKS>
27 15
36 3
37 6
38 18
39 80
40 10
41 11
43 5
44 5
45 35
46 15
50 35
51 56
52 13
53 6
61 12
62 25
63 63
64 11
65 100
66 10
70 2
74 5
75 2
77 14
86 4
89 38
90 13
91 999
92 562
93 42
94 2

$$$$
BENZENE
  -NISTMS-12099911132D 1   1.0         0.0          
CAS rn = 71432, Library ID = 88
  6  6  0  0  0  0  0  0  0  0  0
   -0.6866    1.0097    0.0000 C   0  0  0     0  0  0  0  0  0
   -0.6866    0.2019    0.0000 C   0  0  0     0  0  0  0  0  0
    0.0000    1.4136    0.0000 C   0  0  0     0  0  0  0  0  0
    0.0000   -0.2019    0.0000 C   0  0  0     0  0  0  0  0  0
    0.7270    1.0097    0.0000 C   0  0  0     0  0  0  0  0  0
    0.7270    0.2019    0.0000 C   0  0  0     0  0  0  0  0  0
  1  2  2  0  0  0  0
  1  3  1  0  0  0  0
  2  4  1  0  0  0  0
  3  5  2  0  0  0  0
  4  6  2  0  0  0  0
  5  6  1  0  0  0  0
>  <NAME>
Benzene

>  <POLYMER>
PVC (5); PBT (9); PET (8)

>  <INCHIKEY>
UHOVQNZJYSORNB-UHFFFAOYSA-N

>  <RETENTION INDEX>
SemiStdNP=651.8

>  <FORMULA>
C6H6

>  <MW>
78

>  <EXACT MASS>
78.0469503

>  <CASNO>
71432

>  <ID>
88

>  <NUM PEAKS>
27

>  <MASS SPECTRAL PEAKS>
15 1
25 1
26 9
27 8
37 18
38 23
39 65
40 2
48 1
49 14
50 109
51 127
52 142
53 6
60 1
61 4
62 6
63 25
64 1
72 1
73 14
74 42
75 17
76 44
77 216
78 999
79 60

$$$$
DI(BUT-3-EN-1-YL) O,O'-(BUTANE-1,4-DIYL) DITEREPHTHALATE
  ACD/LABS04112409592D
Library ID = 89
 36 37  0  0  0  0  0  0  0  0  1 V2000
   23.6811   -8.5214    0.0000 C   0  0  0  0  0  0  0  0  0  0  0  0
   22.5335   -7.8508    0.0000 C   0  0  0  0  0  0  0  0  0  0  0  0
   21.3780   -8.5103    0.0000 C   0  0  0  0  0  0  0  0  0  0  0  0
   20.2304   -7.8397    0.0000 C   0  0  0  0  0  0  0  0  0  0  0  0
   20.2383   -6.5097    0.0000 C   0  0  0  0  0  0  0  0  0  0  0  0
   21.3931   -5.8499    0.0000 C   0  0  0  0  0  0  0  0  0  0  0  0
   22.5407   -6.5204    0.0000 C   0  0  0  0  0  0  0  0  0  0  0  0
   23.6732   -9.8514    0.0000 O   0  0  0  0  0  0  0  0  0  0  0  0
   24.8358   -7.8615    0.0000 O   0  0  0  0  0  0  0  0  0  0  0  0
   19.0900   -5.8388    0.0000 C   0  0  0  0  0  0  0  0  0  0  0  0
   19.0979   -4.5088    0.0000 O   0  0  0  0  0  0  0  0  0  0  0  0
   17.9352   -6.4986    0.0000 O   0  0  0  0  0  0  0  0  0  0  0  0
   16.7876   -5.8281    0.0000 C   0  0  0  0  0  0  0  0  0  0  0  0
   15.6372   -6.4789    0.0000 C   0  0  0  0  0  0  0  0  0  0  0  0
   14.4982   -5.8134    0.0000 C   0  0  0  0  0  0  0  0  0  0  0  0
   13.3477   -6.4642    0.0000 C   0  0  0  0  0  0  0  0  0  0  0  0
   12.2001   -5.7936    0.0000 O   0  0  0  0  0  0  0  0  0  0  0  0
   11.0454   -6.4535    0.0000 C   0  0  0  0  0  0  0  0  0  0  0  0
    9.8978   -5.7829    0.0000 C   0  0  0  0  0  0  0  0  0  0  0  0
    8.7502   -6.4470    0.0000 C   0  0  0  0  0  0  0  0  0  0  0  0
    7.6026   -5.7764    0.0000 C   0  0  0  0  0  0  0  0  0  0  0  0
    7.6098   -4.4460    0.0000 C   0  0  0  0  0  0  0  0  0  0  0  0
    8.7574   -3.7820    0.0000 C   0  0  0  0  0  0  0  0  0  0  0  0
    9.9050   -4.4525    0.0000 C   0  0  0  0  0  0  0  0  0  0  0  0
   11.0453   -7.7881    0.0000 O   0  0  0  0  0  0  0  0  0  0  0  0
    6.4622   -3.7755    0.0000 C   0  0  0  0  0  0  0  0  0  0  0  0
    6.4622   -2.4409    0.0000 O   0  0  0  0  0  0  0  0  0  0  0  0
    5.3074   -4.4353    0.0000 O   0  0  0  0  0  0  0  0  0  0  0  0
    4.1598   -3.7648    0.0000 C   0  0  0  0  0  0  0  0  0  0  0  0
    3.0047   -4.4235    0.0000 C   0  0  0  0  0  0  0  0  0  0  0  0
    1.8571   -3.7529    0.0000 C   0  0  0  0  0  0  0  0  0  0  0  0
    0.7017   -4.4123    0.0000 C   0  0  0  0  0  0  0  0  0  0  0  0
   25.9834   -8.5321    0.0000 C   0  0  0  0  0  0  0  0  0  0  0  0
   27.1385   -7.8734    0.0000 C   0  0  0  0  0  0  0  0  0  0  0  0
   28.2861   -8.5439    0.0000 C   0  0  0  0  0  0  0  0  0  0  0  0
   29.4416   -7.8845    0.0000 C   0  0  0  0  0  0  0  0  0  0  0  0
  1  2  1  0  0  0  0
  2  3  1  0  0  0  0
  3  4  2  0  0  0  0
  4  5  1  0  0  0  0
  5  6  2  0  0  0  0
  6  7  1  0  0  0  0
  2  7  2  0  0  0  0
  1  8  2  0  0  0  0
  1  9  1  0  0  0  0
 10 11  2  0  0  0  0
 13 14  1  0  0  0  0
 14 15  1  0  0  0  0
 15 16  1  0  0  0  0
 12 13  1  0  0  0  0
 18 19  1  0  0  0  0
 19 20  1  0  0  0  0
 20 21  2  0  0  0  0
 21 22  1  0  0  0  0
 22 23  2  0  0  0  0
 23 24  1  0  0  0  0
 19 24  2  0  0  0  0
 18 25  2  0  0  0  0
 17 18  1  0  0  0  0
 26 27  2  0  0  0  0
 29 30  1  0  0  0  0
 30 31  1  0  0  0  0
 31 32  2  0  0  0  0
 28 29  1  0  0  0  0
 26 28  1  0  0  0  0
 22 26  1  0  0  0  0
 16 17  1  0  0  0  0
 10 12  1  0  0  0  0
  5 10  1  0  0  0  0
  9 33  1  0  0  0  0
 33 34  1  0  0  0  0
 34 35  1  0  0  0  0
 35 36  2  0  0  0  0
M  END
>  <NAME>
Di(but-3-en-1-yl) O,O'-(butane-1,4-diyl) diterephthalate

>  <INCHIKEY>
BNRHLWMJTZYYEQ-UHFFFAOYSA-N

>  <POLYMER>
PBT (9)

>  <RETENTION INDEX>
SemiStdNP=3828.2

>  <FORMULA>
C28H30O8

>  <MW>
494

>  <EXACT MASS>
494.194067

>  <ID>
89

>  <NUM PEAKS>
113

>  <MASS SPECTRAL PEAKS>
19 1
27 8
29 10
30 1
39 18
41 7
43 4
50 10
51 4
53 10
54 367
55 118
56 5
65 64
66 7
67 3
71 24
74 2
75 14
76 51
77 9
78 4
79 14
80 21
90 1
91 3
93 38
94 3
99 1
103 21
104 136
105 21
107 5
108 58
109 5
115 2
118 3
121 132
122 14
123 1
129 7
130 1
131 2
132 62
133 15
135 1
147 3
148 4
149 474
150 51
151 5
152 6
153 2
157 3
158 1
160 1
162 19
163 1
167 2
173 5
174 5
175 2
176 130
177 6
180 19
181 3
184 1
185 41
186 6
187 1
188 1
201 16
202 5
203 349
204 63
205 6
208 9
212 3
219 9
220 11
221 25
222 3
225 4
237 1
238 4
257 1
266 4
269 1
275 1
297 7
321 9
322 1
323 2
324 12
325 9
326 1
351 26
352 5
353 45
354 11
369 999
370 221
371 38
372 4
373 5
393 51
394 15
395 2
405 30
406 8
423 161
424 41
425 8

$$$$
4-((4-(4-((BUT-3-ENYLOXY)CARBONYL)BENZOYLOXY)BUTOXY)CARBONYL)BENZOIC ACID
  ACD/LABS04112409552D
Library ID = 90
 32 33  0  0  0  0  0  0  0  0  1 V2000
   24.4874   -3.4704    0.0000 C   0  0  0  0  0  0  0  0  0  0  0  0
   23.3356   -4.1354    0.0000 C   0  0  0  0  0  0  0  0  0  0  0  0
   23.3356   -5.4654    0.0000 C   0  0  0  0  0  0  0  0  0  0  0  0
   22.1838   -6.1304    0.0000 C   0  0  0  0  0  0  0  0  0  0  0  0
   21.0320   -5.4654    0.0000 C   0  0  0  0  0  0  0  0  0  0  0  0
   21.0320   -4.1354    0.0000 C   0  0  0  0  0  0  0  0  0  0  0  0
   22.1838   -3.4704    0.0000 C   0  0  0  0  0  0  0  0  0  0  0  0
   24.4874   -2.1404    0.0000 O   0  0  0  0  0  0  0  0  0  0  0  0
   25.6392   -4.1354    0.0000 O   0  0  0  0  0  0  0  0  0  0  0  0
   19.8802   -6.1304    0.0000 C   0  0  0  0  0  0  0  0  0  0  0  0
   19.8802   -7.4603    0.0000 O   0  0  0  0  0  0  0  0  0  0  0  0
   18.7284   -5.4654    0.0000 O   0  0  0  0  0  0  0  0  0  0  0  0
   17.5766   -6.1304    0.0000 C   0  0  0  0  0  0  0  0  0  0  0  0
   16.4247   -5.4654    0.0000 C   0  0  0  0  0  0  0  0  0  0  0  0
   15.2729   -6.1304    0.0000 C   0  0  0  0  0  0  0  0  0  0  0  0
   14.1211   -5.4654    0.0000 C   0  0  0  0  0  0  0  0  0  0  0  0
   12.9693   -6.1304    0.0000 O   0  0  0  0  0  0  0  0  0  0  0  0
   11.8175   -5.4654    0.0000 C   0  0  0  0  0  0  0  0  0  0  0  0
   10.6657   -6.1304    0.0000 C   0  0  0  0  0  0  0  0  0  0  0  0
   10.6657   -7.4603    0.0000 C   0  0  0  0  0  0  0  0  0  0  0  0
    9.5139   -8.1253    0.0000 C   0  0  0  0  0  0  0  0  0  0  0  0
    8.3621   -7.4603    0.0000 C   0  0  0  0  0  0  0  0  0  0  0  0
    8.3621   -6.1304    0.0000 C   0  0  0  0  0  0  0  0  0  0  0  0
    9.5139   -5.4654    0.0000 C   0  0  0  0  0  0  0  0  0  0  0  0
   11.8175   -4.1354    0.0000 O   0  0  0  0  0  0  0  0  0  0  0  0
    7.2102   -8.1253    0.0000 C   0  0  0  0  0  0  0  0  0  0  0  0
    7.2102   -9.4553    0.0000 O   0  0  0  0  0  0  0  0  0  0  0  0
    6.0584   -7.4603    0.0000 O   0  0  0  0  0  0  0  0  0  0  0  0
    4.9066   -8.1253    0.0000 C   0  0  0  0  0  0  0  0  0  0  0  0
    3.7548   -7.4603    0.0000 C   0  0  0  0  0  0  0  0  0  0  0  0
    2.6030   -8.1253    0.0000 C   0  0  0  0  0  0  0  0  0  0  0  0
    1.4512   -7.4603    0.0000 C   0  0  0  0  0  0  0  0  0  0  0  0
  1  2  1  0  0  0  0
  2  3  1  0  0  0  0
  3  4  2  0  0  0  0
  4  5  1  0  0  0  0
  5  6  2  0  0  0  0
  6  7  1  0  0  0  0
  2  7  2  0  0  0  0
  1  8  2  0  0  0  0
  1  9  1  0  0  0  0
 10 11  2  0  0  0  0
 13 14  1  0  0  0  0
 14 15  1  0  0  0  0
 15 16  1  0  0  0  0
 12 13  1  0  0  0  0
 18 19  1  0  0  0  0
 19 20  1  0  0  0  0
 20 21  2  0  0  0  0
 21 22  1  0  0  0  0
 22 23  2  0  0  0  0
 23 24  1  0  0  0  0
 19 24  2  0  0  0  0
 18 25  2  0  0  0  0
 17 18  1  0  0  0  0
 26 27  2  0  0  0  0
 29 30  1  0  0  0  0
 30 31  1  0  0  0  0
 31 32  2  0  0  0  0
 28 29  1  0  0  0  0
 26 28  1  0  0  0  0
 22 26  1  0  0  0  0
 16 17  1  0  0  0  0
 10 12  1  0  0  0  0
  5 10  1  0  0  0  0
M  END
>  <NAME>
4-((4-(4-((But-3-enyloxy)carbonyl)benzoyloxy)butoxy)carbonyl)benzoic acid

>  <INCHIKEY>
FCUIPTITRCHKEB-UHFFFAOYSA-N

>  <POLYMER>
PBT (9)

>  <RETENTION INDEX>
SemiStdNP=3578.5

>  <FORMULA>
C24H24O8

>  <MW>
440

>  <EXACT MASS>
440.147118

>  <ID>
90

>  <NUM PEAKS>
78

>  <MASS SPECTRAL PEAKS>
22 5
27 17
29 31
31 5
35 8
39 30
41 38
42 19
43 38
50 25
51 7
53 4
54 999
55 158
65 208
66 15
69 7
71 301
72 10
75 46
76 170
77 41
82 9
85 4
87 4
93 29
103 45
104 423
105 121
106 11
118 13
121 234
122 31
131 5
132 935
133 100
144 11
149 713
150 118
152 29
160 8
162 38
176 150
177 16
180 166
181 19
188 7
189 56
190 7
194 16
196 3
198 6
202 3
203 90
204 22
208 86
209 12
219 67
220 47
221 48
222 7
224 5
225 7
237 20
238 37
252 6
253 6
266 57
296 11
323 21
324 175
325 72
353 7
369 889
370 201
371 35
440 56
441 11

$$$$
4-(BENZOYLOXY)BUTYL BUT-3-ENYL TEREPHTHALATE
  ChemDraw04112409512D 
CAS rn = 1826008314, Library ID = 91
 29 30  0  0  0  0  0  0  0  0999 V2000 
    3.2151    1.0312    0.0000 C   0  0  0  0  0  0  0  0  0  0  0  0 
    2.5006    0.6188    0.0000 C   0  0  0  0  0  0  0  0  0  0  0  0 
    2.5006   -0.2062    0.0000 C   0  0  0  0  0  0  0  0  0  0  0  0 
    1.7862   -0.6188    0.0000 C   0  0  0  0  0  0  0  0  0  0  0  0 
    1.0717   -0.2062    0.0000 C   0  0  0  0  0  0  0  0  0  0  0  0 
    0.3572   -0.6188    0.0000 C   0  0  0  0  0  0  0  0  0  0  0  0 
    1.0717    0.6188    0.0000 C   0  0  0  0  0  0  0  0  0  0  0  0 
    1.7862    1.0312    0.0000 C   0  0  0  0  0  0  0  0  0  0  0  0 
    3.2151    1.8562    0.0000 O   0  0  0  0  0  0  0  0  0  0  0  0 
    3.9296    0.6188    0.0000 O   0  0  0  0  0  0  0  0  0  0  0  0 
    0.3572   -1.4438    0.0000 O   0  0  0  0  0  0  0  0  0  0  0  0 
   -0.3572   -0.2062    0.0000 O   0  0  0  0  0  0  0  0  0  0  0  0 
    4.6441    1.0312    0.0000 C   0  0  0  0  0  0  0  0  0  0  0  0 
    5.3585    0.6188    0.0000 C   0  0  0  0  0  0  0  0  0  0  0  0 
    6.0730    1.0312    0.0000 C   0  0  0  0  0  0  0  0  0  0  0  0 
    6.7875    0.6188    0.0000 C   0  0  0  0  0  0  0  0  0  0  0  0 
   -1.0717   -0.6188    0.0000 C   0  0  0  0  0  0  0  0  0  0  0  0 
   -1.7862   -0.2062    0.0000 C   0  0  0  0  0  0  0  0  0  0  0  0 
   -2.5006   -0.6188    0.0000 C   0  0  0  0  0  0  0  0  0  0  0  0 
   -3.2151   -0.2062    0.0000 C   0  0  0  0  0  0  0  0  0  0  0  0 
   -3.9296   -0.6188    0.0000 O   0  0  0  0  0  0  0  0  0  0  0  0 
   -4.6441   -0.2062    0.0000 C   0  0  0  0  0  0  0  0  0  0  0  0 
   -5.3585   -0.6188    0.0000 C   0  0  0  0  0  0  0  0  0  0  0  0 
   -5.3585   -1.4438    0.0000 C   0  0  0  0  0  0  0  0  0  0  0  0 
   -6.0730   -1.8562    0.0000 C   0  0  0  0  0  0  0  0  0  0  0  0 
   -6.7875   -1.4438    0.0000 C   0  0  0  0  0  0  0  0  0  0  0  0 
   -6.7875   -0.6188    0.0000 C   0  0  0  0  0  0  0  0  0  0  0  0 
   -6.0730   -0.2062    0.0000 C   0  0  0  0  0  0  0  0  0  0  0  0 
   -4.6441    0.6188    0.0000 O   0  0  0  0  0  0  0  0  0  0  0  0 
  1  2  1  0       
  2  3  1  0       
  3  4  2  0       
  4  5  1  0       
  5  6  1  0       
  5  7  2  0       
  7  8  1  0       
  2  8  2  0       
  1  9  2  0       
  1 10  1  0       
  6 11  2  0       
  6 12  1  0       
 13 14  1  0       
 14 15  1  0       
 15 16  2  0       
 10 13  1  0       
 17 18  1  0       
 18 19  1  0       
 19 20  1  0       
 22 23  1  0       
 23 24  1  0       
 24 25  2  0       
 25 26  1  0       
 26 27  2  0       
 27 28  1  0       
 23 28  2  0       
 22 29  2  0       
 21 22  1  0       
 20 21  1  0       
 12 17  1  0       
M  END
>  <NAME>
4-(Benzoyloxy)butyl but-3-enyl terephthalate

>  <INCHIKEY>
WUTQYGMZTJBADO-UHFFFAOYSA-N

>  <POLYMER>
PBT (9)

>  <RETENTION INDEX>
SemiStdNP=3123.2

>  <FORMULA>
C23H24O6

>  <MW>
396

>  <EXACT MASS>
396.157288

>  <CASNO>
1826008314

>  <ID>
91

>  <NUM PEAKS>
73

>  <MASS SPECTRAL PEAKS>
21 1
27 13
29 13
35 2
39 29
41 12
42 3
43 4
44 3
50 19
51 40
53 12
54 640
55 93
56 4
58 1
65 65
66 4
71 160
72 6
74 2
75 18
76 65
77 217
78 17
79 10
80 8
91 1
93 13
103 22
104 139
105 781
106 61
111 2
118 3
121 105
122 32
123 11
132 36
133 5
134 1
135 5
140 2
148 2
149 423
150 47
151 4
152 6
153 5
158 12
162 31
163 4
167 2
176 56
177 21
181 13
193 35
194 3
202 1
203 289
204 77
205 10
219 9
220 48
221 14
225 4
237 16
253 10
261 2
274 4
325 999
326 209
327 32

$$$$
1,4-BUTANEDIYL DIBENZOATE
  ACD/LABS04112409412D
CAS rn = 19224272, Library ID = 92
 22 23  0  0  0  0  0  0  0  0  1 V2000
   12.0980   -5.1894    0.0000 C   0  0  0  0  0  0  0  0  0  0  0  0
   13.2498   -5.8544    0.0000 C   0  0  0  0  0  0  0  0  0  0  0  0
   14.4016   -5.1894    0.0000 C   0  0  0  0  0  0  0  0  0  0  0  0
   15.5534   -5.8544    0.0000 C   0  0  0  0  0  0  0  0  0  0  0  0
    9.7944   -5.1894    0.0000 C   0  0  0  0  0  0  0  0  0  0  0  0
    8.6426   -5.8544    0.0000 C   0  0  0  0  0  0  0  0  0  0  0  0
    8.6426   -7.1844    0.0000 C   0  0  0  0  0  0  0  0  0  0  0  0
    7.4907   -7.8494    0.0000 C   0  0  0  0  0  0  0  0  0  0  0  0
    6.3389   -7.1844    0.0000 C   0  0  0  0  0  0  0  0  0  0  0  0
    6.3389   -5.8544    0.0000 C   0  0  0  0  0  0  0  0  0  0  0  0
    7.4907   -5.1894    0.0000 C   0  0  0  0  0  0  0  0  0  0  0  0
    9.7944   -3.8594    0.0000 O   0  0  0  0  0  0  0  0  0  0  0  0
   10.9462   -5.8544    0.0000 O   0  0  0  0  0  0  0  0  0  0  0  0
   17.8571   -5.8544    0.0000 C   0  0  0  0  0  0  0  0  0  0  0  0
   19.0089   -5.1894    0.0000 C   0  0  0  0  0  0  0  0  0  0  0  0
   19.0089   -3.8594    0.0000 C   0  0  0  0  0  0  0  0  0  0  0  0
   20.1607   -3.1944    0.0000 C   0  0  0  0  0  0  0  0  0  0  0  0
   21.3125   -3.8594    0.0000 C   0  0  0  0  0  0  0  0  0  0  0  0
   21.3125   -5.1894    0.0000 C   0  0  0  0  0  0  0  0  0  0  0  0
   20.1607   -5.8544    0.0000 C   0  0  0  0  0  0  0  0  0  0  0  0
   17.8571   -7.1844    0.0000 O   0  0  0  0  0  0  0  0  0  0  0  0
   16.7052   -5.1894    0.0000 O   0  0  0  0  0  0  0  0  0  0  0  0
  1  2  1  0  0  0  0
  2  3  1  0  0  0  0
  3  4  1  0  0  0  0
  5  6  1  0  0  0  0
  6  7  1  0  0  0  0
  7  8  2  0  0  0  0
  8  9  1  0  0  0  0
  9 10  2  0  0  0  0
 10 11  1  0  0  0  0
  6 11  2  0  0  0  0
  5 12  2  0  0  0  0
  5 13  1  0  0  0  0
  1 13  1  0  0  0  0
 14 15  1  0  0  0  0
 15 16  1  0  0  0  0
 16 17  2  0  0  0  0
 17 18  1  0  0  0  0
 18 19  2  0  0  0  0
 19 20  1  0  0  0  0
 15 20  2  0  0  0  0
 14 21  2  0  0  0  0
 14 22  1  0  0  0  0
  4 22  1  0  0  0  0
M  END
>  <NAME>
1,4-Butanediyl dibenzoate

>  <INCHIKEY>
YHOWYTOWCBNTHB-UHFFFAOYSA-N

>  <RETENTION INDEX>
SemiStdNP=2411.4

>  <POLYMER>
PBT (9)

>  <FORMULA>
C18H18O4

>  <MW>
298

>  <EXACT MASS>
298.120508

>  <CASNO>
19224272

>  <ID>
92

>  <NUM PEAKS>
28

>  <MASS SPECTRAL PEAKS>
19 6
27 10
31 9
35 4
40 9
41 16
48 5
50 20
51 70
54 270
55 16
71 163
76 4
77 275
78 15
82 5
83 5
95 10
105 999
106 83
110 6
122 28
148 9
153 7
176 52
193 44
266 5
285 5

$$$$
DI(BUT-3-ENYL) TEREPHTHALATE
  ACD/LABS04112408552D
CAS rn = 62680755, Library ID = 93
 20 20  0  0  0  0  0  0  0  0  1 V2000
   11.5487   -7.5103    0.0000 C   0  0  0  0  0  0  0  0  0  0  0  0
   10.3969   -6.8452    0.0000 C   0  0  0  0  0  0  0  0  0  0  0  0
    9.2451   -7.5102    0.0000 C   0  0  0  0  0  0  0  0  0  0  0  0
    8.0933   -6.8452    0.0000 C   0  0  0  0  0  0  0  0  0  0  0  0
    8.0933   -5.5152    0.0000 C   0  0  0  0  0  0  0  0  0  0  0  0
    6.9415   -4.8502    0.0000 C   0  0  0  0  0  0  0  0  0  0  0  0
    9.2451   -4.8502    0.0000 C   0  0  0  0  0  0  0  0  0  0  0  0
   10.3969   -5.5153    0.0000 C   0  0  0  0  0  0  0  0  0  0  0  0
   11.5487   -8.8403    0.0000 O   0  0  0  0  0  0  0  0  0  0  0  0
   12.7006   -6.8453    0.0000 O   0  0  0  0  0  0  0  0  0  0  0  0
    6.9415   -3.5202    0.0000 O   0  0  0  0  0  0  0  0  0  0  0  0
    5.7897   -5.5152    0.0000 O   0  0  0  0  0  0  0  0  0  0  0  0
   13.8524   -7.5103    0.0000 C   0  0  0  0  0  0  0  0  0  0  0  0
   15.0042   -6.8453    0.0000 C   0  0  0  0  0  0  0  0  0  0  0  0
   16.1560   -7.5103    0.0000 C   0  0  0  0  0  0  0  0  0  0  0  0
   17.3078   -6.8453    0.0000 C   0  0  0  0  0  0  0  0  0  0  0  0
    4.6379   -4.8502    0.0000 C   0  0  0  0  0  0  0  0  0  0  0  0
    3.4861   -5.5152    0.0000 C   0  0  0  0  0  0  0  0  0  0  0  0
    2.3342   -4.8502    0.0000 C   0  0  0  0  0  0  0  0  0  0  0  0
    1.1824   -5.5152    0.0000 C   0  0  0  0  0  0  0  0  0  0  0  0
  1  2  1  0  0  0  0
  2  3  1  0  0  0  0
  3  4  2  0  0  0  0
  4  5  1  0  0  0  0
  5  6  1  0  0  0  0
  5  7  2  0  0  0  0
  7  8  1  0  0  0  0
  2  8  2  0  0  0  0
  1  9  2  0  0  0  0
  1 10  1  0  0  0  0
  6 11  2  0  0  0  0
  6 12  1  0  0  0  0
 13 14  1  0  0  0  0
 14 15  1  0  0  0  0
 15 16  2  0  0  0  0
 10 13  1  0  0  0  0
 12 17  1  0  0  0  0
 17 18  1  0  0  0  0
 18 19  1  0  0  0  0
 19 20  2  0  0  0  0
M  END
>  <NAME>
Di(but-3-enyl) terephthalate

>  <INCHIKEY>
TVHCSJSGHDPGEW-UHFFFAOYSA-N

>  <POLYMER>
PBT (9)

>  <RETENTION INDEX>
SemiStdNP=2027.8

>  <FORMULA>
C16H18O4

>  <MW>
274

>  <EXACT MASS>
274.120508

>  <CASNO>
62680755

>  <ID>
93

>  <NUM PEAKS>
59

>  <MASS SPECTRAL PEAKS>
19 1
21 1
26 1
27 9
29 13
38 3
39 26
41 8
42 1
50 16
51 7
52 3
53 13
54 227
55 36
56 1
63 2
65 52
66 14
67 3
71 5
74 5
75 16
76 76
77 8
78 2
79 11
80 20
81 2
89 1
91 3
93 21
94 2
103 19
104 90
105 7
107 1
108 7
115 2
116 1
121 82
122 8
128 1
129 3
132 8
133 1
148 2
149 354
150 25
151 5
167 5
174 2
175 1
203 999
204 109
205 10
206 1
220 2
221 1

$$$$
BUT-3-ENYL TEREPHTHALATE
  ACD/LABS04112408502D
CAS rn = 62680744, Library ID = 94
 16 16  0  0  0  0  0  0  0  0  1 V2000
   11.1613   -5.7887    0.0000 C   0  0  0  0  0  0  0  0  0  0  0  0
   10.0095   -5.1237    0.0000 C   0  0  0  0  0  0  0  0  0  0  0  0
   10.0095   -3.7937    0.0000 C   0  0  0  0  0  0  0  0  0  0  0  0
    8.8577   -3.1287    0.0000 C   0  0  0  0  0  0  0  0  0  0  0  0
    7.7059   -3.7937    0.0000 C   0  0  0  0  0  0  0  0  0  0  0  0
    6.5541   -3.1287    0.0000 C   0  0  0  0  0  0  0  0  0  0  0  0
    7.7059   -5.1237    0.0000 C   0  0  0  0  0  0  0  0  0  0  0  0
    8.8577   -5.7887    0.0000 C   0  0  0  0  0  0  0  0  0  0  0  0
   11.1613   -7.1187    0.0000 O   0  0  0  0  0  0  0  0  0  0  0  0
   12.3131   -5.1237    0.0000 O   0  0  0  0  0  0  0  0  0  0  0  0
    6.5541   -1.7987    0.0000 O   0  0  0  0  0  0  0  0  0  0  0  0
    5.4023   -3.7937    0.0000 O   0  0  0  0  0  0  0  0  0  0  0  0
   13.4649   -5.7887    0.0000 C   0  0  0  0  0  0  0  0  0  0  0  0
   14.6168   -5.1237    0.0000 C   0  0  0  0  0  0  0  0  0  0  0  0
   15.7686   -5.7887    0.0000 C   0  0  0  0  0  0  0  0  0  0  0  0
   16.9204   -5.1237    0.0000 C   0  0  0  0  0  0  0  0  0  0  0  0
  1  2  1  0  0  0  0
  2  3  1  0  0  0  0
  3  4  2  0  0  0  0
  4  5  1  0  0  0  0
  5  6  1  0  0  0  0
  5  7  2  0  0  0  0
  7  8  1  0  0  0  0
  2  8  2  0  0  0  0
  1  9  2  0  0  0  0
  1 10  1  0  0  0  0
  6 11  2  0  0  0  0
  6 12  1  0  0  0  0
 13 14  1  0  0  0  0
 14 15  1  0  0  0  0
 15 16  2  0  0  0  0
 10 13  1  0  0  0  0
M  END
>  <NAME>
But-3-enyl terephthalate

>  <INCHIKEY>
TYARZXLQTHCHIP-UHFFFAOYSA-N

>  <POLYMER>
PBT (9)

>  <RETENTION INDEX>
SemiStdNP=1847.3

>  <FORMULA>
C12H12O4

>  <MW>
220

>  <EXACT MASS>
220.073559

>  <CASNO>
62680744

>  <ID>
94

>  <NUM PEAKS>
52

>  <MASS SPECTRAL PEAKS>
26 1
27 13
29 12
38 4
39 40
40 2
41 8
42 2
43 1
45 4
49 1
50 27
51 22
52 4
53 16
54 301
55 26
62 1
63 4
64 2
65 128
66 10
73 1
74 12
75 27
76 42
77 8
78 1
79 1
91 1
92 2
93 16
94 1
103 16
104 24
105 6
115 1
119 1
120 2
121 140
122 13
123 1
132 1
148 1
149 999
150 85
151 10
165 1
166 4
167 1
179 5
203 6

$$$$
BUT-3-ENYL BENZOATE
  ACD/LABS04102417222D
CAS rn = 18203322, Library ID = 95
 13 13  0  0  0  0  0  0  0  0  1 V2000
   12.5909   -4.8655    0.0000 C   0  0  0  0  0  0  0  0  0  0  0  0
   11.4391   -5.5305    0.0000 C   0  0  0  0  0  0  0  0  0  0  0  0
   11.4351   -6.8535    0.0000 C   0  0  0  0  0  0  0  0  0  0  0  0
   10.2833   -7.5185    0.0000 C   0  0  0  0  0  0  0  0  0  0  0  0
    9.1352   -6.8606    0.0000 C   0  0  0  0  0  0  0  0  0  0  0  0
    9.1350   -5.5297    0.0000 C   0  0  0  0  0  0  0  0  0  0  0  0
   10.2868   -4.8647    0.0000 C   0  0  0  0  0  0  0  0  0  0  0  0
   12.5825   -3.5393    0.0000 O   0  0  0  0  0  0  0  0  0  0  0  0
   13.7308   -5.5281    0.0000 O   0  0  0  0  0  0  0  0  0  0  0  0
   14.8826   -4.8631    0.0000 C   0  0  0  0  0  0  0  0  0  0  0  0
   16.0304   -5.5211    0.0000 C   0  0  0  0  0  0  0  0  0  0  0  0
   17.1822   -4.8561    0.0000 C   0  0  0  0  0  0  0  0  0  0  0  0
   18.3347   -5.5218    0.0000 C   0  0  0  0  0  0  0  0  0  0  0  0
  1  2  1  0  0  0  0
  2  3  1  0  0  0  0
  3  4  2  0  0  0  0
  4  5  1  0  0  0  0
  5  6  2  0  0  0  0
  6  7  1  0  0  0  0
  2  7  2  0  0  0  0
  1  8  2  0  0  0  0
  1  9  1  0  0  0  0
 10 11  1  0  0  0  0
 11 12  1  0  0  0  0
 12 13  2  0  0  0  0
  9 10  1  0  0  0  0
M  END
>  <NAME>
But-3-enyl benzoate

>  <INCHIKEY>
HCAQKYMCZZDLGU-UHFFFAOYSA-N

>  <RETENTION INDEX>
SemiStdNP=1351.9

>  <POLYMER>
PBT (9)

>  <FORMULA>
C11H12O2

>  <MW>
176

>  <EXACT MASS>
176.08373

>  <CASNO>
18203322

>  <ID>
95

>  <COMMENT>
not in mainlib

>  <NUM PEAKS>
30

>  <MASS SPECTRAL PEAKS>
26 1
27 24
29 16
38 3
39 37
40 2
41 9
50 28
51 99
52 7
53 12
54 376
55 26
63 1
65 1
74 8
75 7
76 16
77 358
78 26
79 2
104 3
105 999
106 74
107 6
122 16
123 2
135 17
136 1
176 2

$$$$
BENZOIC ACID
  -NISTMS-12099911132D 1   1.0         0.0          
CAS rn = 65850, Library ID = 96
  9  9  0  0  0  0  0  0  0  0  0
   -0.6866    0.4039    0.0000 C   0  0  0     0  0  0  0  0  0
    0.0000    0.8078    0.0000 C   0  0  0     0  0  0  0  0  0
   -0.6866   -0.4039    0.0000 C   0  0  0     0  0  0  0  0  0
    0.7270    0.4039    0.0000 C   0  0  0     0  0  0  0  0  0
    0.0000    1.6155    0.0000 C   0  0  0     0  0  0  0  0  0
    0.0000   -0.8078    0.0000 C   0  0  0     0  0  0  0  0  0
    0.7270   -0.4039    0.0000 C   0  0  0     0  0  0  0  0  0
   -0.6866    2.0194    0.0000 O   0  0  0     0  2  0  0  0  0
    0.7270    2.0194    0.0000 O   0  0  0     0  2  0  0  0  0
  1  2  2  0  0  0  0
  1  3  1  0  0  0  0
  2  4  1  0  0  0  0
  2  5  1  0  0  0  0
  3  6  2  0  0  0  0
  4  7  2  0  0  0  0
  5  8  1  0  0  0  0
  5  9  2  0  0  0  0
  6  7  1  0  0  0  0
>  <NAME>
Benzoic acid

>  <POLYMER>
PBT (9); PET (8)

>  <INCHIKEY>
WPYMKLBDIGXBTP-UHFFFAOYSA-N

>  <RETENTION INDEX>
SemiStdNP=1184.4

>  <FORMULA>
C7H6O2

>  <MW>
122

>  <EXACT MASS>
122.0367794

>  <CASNO>
65850

>  <ID>
96

>  <NUM PEAKS>
30

>  <MASS SPECTRAL PEAKS>
27 20
37 22
38 42
39 49
45 24
49 18
50 158
51 277
52 49
58 4
60 4
61 4
62 5
63 9
65 21
66 8
73 14
74 64
75 35
76 61
77 676
78 70
94 20
97 5
105 999
106 82
110 5
114 5
122 881
123 68

$$$$
1,8,15-TRIAZACYCLODOCOSANE-2,9,16-TRIONE
  ChemDraw04112411272D 
CAS rn = 56403088, Library ID = 97
 24 24  0  0  0  0  0  0  0  0999 V2000 
    2.4494   -0.8231    0.0000 C   0  0  0  0  0  0  0  0  0  0  0  0 
    2.4494   -1.6462    0.0000 C   0  0  0  0  0  0  0  0  0  0  0  0 
    3.1622   -0.4115    0.0000 C   0  0  0  0  0  0  0  0  0  0  0  0 
    1.7366   -2.0577    0.0000 C   0  0  0  0  0  0  0  0  0  0  0  0 
    3.1622    0.4115    0.0000 C   0  0  0  0  0  0  0  0  0  0  0  0 
    1.0238   -1.6462    0.0000 N   0  0  0  0  0  0  0  0  0  0  0  0 
    1.7366   -2.8808    0.0000 O   0  0  0  0  0  0  0  0  0  0  0  0 
    2.4494    0.8231    0.0000 C   0  0  0  0  0  0  0  0  0  0  0  0 
   -1.8212   -1.6353    0.0000 C   0  0  0  0  0  0  0  0  0  0  0  0 
   -1.8212   -0.8122    0.0000 C   0  0  0  0  0  0  0  0  0  0  0  0 
   -1.1084   -2.0468    0.0000 C   0  0  0  0  0  0  0  0  0  0  0  0 
   -2.3392   -0.1725    0.0000 C   0  0  0  0  0  0  0  0  0  0  0  0 
   -0.4018   -1.6462    0.0000 C   0  0  0  0  0  0  0  0  0  0  0  0 
   -1.9276    0.5403    0.0000 N   0  0  0  0  0  0  0  0  0  0  0  0 
   -3.1622   -0.1725    0.0000 O   0  0  0  0  0  0  0  0  0  0  0  0 
    0.3110   -2.0577    0.0000 C   0  0  0  0  0  0  0  0  0  0  0  0 
    0.3110    2.0577    0.0000 C   0  0  0  0  0  0  0  0  0  0  0  0 
    1.0238    1.6462    0.0000 C   0  0  0  0  0  0  0  0  0  0  0  0 
   -0.4018    1.6462    0.0000 C   0  0  0  0  0  0  0  0  0  0  0  0 
    1.7366    2.0577    0.0000 C   0  0  0  0  0  0  0  0  0  0  0  0 
   -0.4018    0.8231    0.0000 C   0  0  0  0  0  0  0  0  0  0  0  0 
    2.4494    1.6462    0.0000 N   0  0  0  0  0  0  0  0  0  0  0  0 
    1.7366    2.8808    0.0000 O   0  0  0  0  0  0  0  0  0  0  0  0 
   -1.1147    0.4115    0.0000 C   0  0  0  0  0  0  0  0  0  0  0  0 
  1  2  1  0       
  1  3  1  0       
  2  4  1  0       
  3  5  1  0       
  4  6  1  0       
  4  7  2  0       
  5  8  1  0       
  9 10  1  0       
  9 11  1  0       
 10 12  1  0       
 11 13  1  0       
 12 14  1  0       
 12 15  2  0       
 13 16  1  0       
  6 16  1  0       
 17 18  1  0       
 17 19  1  0       
 18 20  1  0       
 19 21  1  0       
 20 22  1  0       
 20 23  2  0       
 21 24  1  0       
 14 24  1  0       
 22  8  1  0       
M  END
>  <NAME>
1,8,15-Triazacyclodocosane-2,9,16-trione

>  <INCHIKEY>
HJBDVFFKADBHHV-UHFFFAOYSA-N

>  <POLYMER>
Nylon 6 (11)

>  <RETENTION INDEX>
SemiStdNP=3393.6

>  <FORMULA>
C18H33N3O3

>  <MW>
339

>  <EXACT MASS>
339.252192

>  <CASNO>
56403088

>  <ID>
97

>  <NUM PEAKS>
120

>  <MASS SPECTRAL PEAKS>
21 4
27 16
29 35
30 188
36 5
39 18
41 207
42 54
43 97
44 119
45 12
46 3
53 13
54 18
55 269
56 126
57 75
58 50
59 28
60 5
67 68
68 17
69 214
70 69
71 10
72 94
73 40
79 33
82 21
83 32
84 128
85 80
86 244
87 47
88 4
94 12
95 11
96 154
97 70
98 64
99 30
100 56
101 56
102 4
110 22
111 16
112 131
113 117
114 999
115 103
122 3
126 56
127 48
128 55
129 71
131 20
139 10
140 80
141 19
142 58
143 54
144 9
145 4
153 10
154 46
155 34
156 60
157 78
158 7
167 19
168 94
169 22
170 29
171 89
172 18
181 5
182 29
183 41
185 45
186 28
197 32
198 37
199 96
200 34
201 26
209 14
211 16
212 7
213 23
214 19
215 8
224 8
225 73
226 35
227 111
228 21
239 66
240 15
241 25
242 72
243 30
253 81
254 20
255 40
256 18
266 9
267 38
268 66
269 19
270 7
281 14
282 21
283 7
294 27
295 7
310 3
311 98
312 17
321 7
339 32

$$$$
6-BUTYRAMIDO-N-(5-CYANOPENTYL)HEXANAMIDE
  ACD/LABS04112411222D
CAS rn = 2648610108, Library ID = 98
 21 20  0  0  0  0  0  0  0  0  1 V2000
   12.6325   -4.4807    0.0000 C   0  0  0  0  0  0  0  0  0  0  0  0
   11.4856   -3.8231    0.0000 C   0  0  0  0  0  0  0  0  0  0  0  0
   10.3386   -4.4807    0.0000 C   0  0  0  0  0  0  0  0  0  0  0  0
    9.1826   -3.8231    0.0000 C   0  0  0  0  0  0  0  0  0  0  0  0
    8.0259   -4.4807    0.0000 C   0  0  0  0  0  0  0  0  0  0  0  0
    6.8698   -3.8231    0.0000 C   0  0  0  0  0  0  0  0  0  0  0  0
   12.6325   -5.8148    0.0000 O   0  0  0  0  0  0  0  0  0  0  0  0
   13.7885   -3.8231    0.0000 N   0  0  0  0  0  0  0  0  0  0  0  0
   14.9452   -4.4807    0.0000 C   0  0  0  0  0  0  0  0  0  0  0  0
   16.1013   -3.8231    0.0000 C   0  0  0  0  0  0  0  0  0  0  0  0
   17.2573   -4.4807    0.0000 C   0  0  0  0  0  0  0  0  0  0  0  0
   18.4140   -3.8231    0.0000 C   0  0  0  0  0  0  0  0  0  0  0  0
   19.5700   -4.4807    0.0000 C   0  0  0  0  0  0  0  0  0  0  0  0
   20.7261   -3.8231    0.0000 C   0  0  0  0  0  0  0  0  0  0  0  0
   21.8828   -3.1564    0.0000 N   0  0  0  0  0  0  0  0  0  0  0  0
    4.5571   -3.8231    0.0000 C   0  0  0  0  0  0  0  0  0  0  0  0
    3.4011   -4.4807    0.0000 C   0  0  0  0  0  0  0  0  0  0  0  0
    2.2450   -3.8231    0.0000 C   0  0  0  0  0  0  0  0  0  0  0  0
    1.0883   -4.4807    0.0000 C   0  0  0  0  0  0  0  0  0  0  0  0
    4.5571   -2.4890    0.0000 O   0  0  0  0  0  0  0  0  0  0  0  0
    5.7138   -4.4807    0.0000 N   0  0  0  0  0  0  0  0  0  0  0  0
  1  2  1  0  0  0  0
  2  3  1  0  0  0  0
  3  4  1  0  0  0  0
  4  5  1  0  0  0  0
  5  6  1  0  0  0  0
  1  7  2  0  0  0  0
  1  8  1  0  0  0  0
  9 10  1  0  0  0  0
 10 11  1  0  0  0  0
 11 12  1  0  0  0  0
 12 13  1  0  0  0  0
 14 15  3  0  0  0  0
 13 14  1  0  0  0  0
  8  9  1  0  0  0  0
 16 17  1  0  0  0  0
 17 18  1  0  0  0  0
 18 19  1  0  0  0  0
 16 20  2  0  0  0  0
 16 21  1  0  0  0  0
  6 21  1  0  0  0  0
M  END
>  <NAME>
6-Butyramido-N-(5-cyanopentyl)hexanamide

>  <INCHIKEY>
DXXFDWPVVSTVAN-UHFFFAOYSA-N

>  <POLYMER>
Nylon 6 (11)

>  <RETENTION INDEX>
SemiStdNP=2759.6

>  <FORMULA>
C16H29N3O2

>  <MW>
295

>  <EXACT MASS>
295.225977

>  <CASNO>
2648610108

>  <ID>
98

>  <NUM PEAKS>
45

>  <MASS SPECTRAL PEAKS>
20 23
26 22
27 62
29 35
30 325
40 30
41 196
42 37
43 342
44 127
54 43
55 268
56 53
58 19
67 24
69 162
70 25
71 229
72 79
73 70
83 59
86 103
87 77
88 44
96 245
100 199
101 174
111 87
112 157
113 357
114 999
115 92
128 106
129 73
142 228
154 106
156 52
167 377
168 53
181 23
187 17
195 68
206 39
209 19
224 268

$$$$
6-ACETAMIDO-N-(5-CYANOPENTYL)HEXANAMIDE
  ACD/LABS04112411192D
CAS rn = 2648610095, Library ID = 99
 19 18  0  0  0  0  0  0  0  0  1 V2000
   12.7765   -4.8667    0.0000 C   0  0  0  0  0  0  0  0  0  0  0  0
   11.6247   -5.5317    0.0000 C   0  0  0  0  0  0  0  0  0  0  0  0
   10.4728   -4.8667    0.0000 C   0  0  0  0  0  0  0  0  0  0  0  0
    9.3210   -5.5317    0.0000 C   0  0  0  0  0  0  0  0  0  0  0  0
    8.1692   -4.8667    0.0000 C   0  0  0  0  0  0  0  0  0  0  0  0
    7.0174   -5.5317    0.0000 C   0  0  0  0  0  0  0  0  0  0  0  0
   12.7765   -3.5367    0.0000 O   0  0  0  0  0  0  0  0  0  0  0  0
   13.9283   -5.5317    0.0000 N   0  0  0  0  0  0  0  0  0  0  0  0
   15.0801   -4.8667    0.0000 C   0  0  0  0  0  0  0  0  0  0  0  0
   16.2319   -5.5317    0.0000 C   0  0  0  0  0  0  0  0  0  0  0  0
   17.3837   -4.8667    0.0000 C   0  0  0  0  0  0  0  0  0  0  0  0
   18.5355   -5.5317    0.0000 C   0  0  0  0  0  0  0  0  0  0  0  0
   19.6873   -4.8667    0.0000 C   0  0  0  0  0  0  0  0  0  0  0  0
   20.8392   -5.5317    0.0000 C   0  0  0  0  0  0  0  0  0  0  0  0
   21.9910   -6.1967    0.0000 N   0  0  0  0  0  0  0  0  0  0  0  0
    4.7138   -5.5317    0.0000 C   0  0  0  0  0  0  0  0  0  0  0  0
    3.5620   -4.8667    0.0000 C   0  0  0  0  0  0  0  0  0  0  0  0
    4.7138   -6.8617    0.0000 O   0  0  0  0  0  0  0  0  0  0  0  0
    5.8656   -4.8667    0.0000 N   0  0  0  0  0  0  0  0  0  0  0  0
  1  2  1  0  0  0  0
  2  3  1  0  0  0  0
  3  4  1  0  0  0  0
  4  5  1  0  0  0  0
  5  6  1  0  0  0  0
  1  7  2  0  0  0  0
  1  8  1  0  0  0  0
  9 10  1  0  0  0  0
 10 11  1  0  0  0  0
 11 12  1  0  0  0  0
 12 13  1  0  0  0  0
 14 15  3  0  0  0  0
 13 14  1  0  0  0  0
  8  9  1  0  0  0  0
 16 17  1  0  0  0  0
 16 18  2  0  0  0  0
 16 19  1  0  0  0  0
  6 19  1  0  0  0  0
M  END
>  <NAME>
6-Acetamido-N-(5-cyanopentyl)hexanamide

>  <INCHIKEY>
PQDCMKKOIKLXCY-UHFFFAOYSA-N

>  <POLYMER>
Nylon 6 (11)

>  <RETENTION INDEX>
SemiStdNP=2603.2

>  <FORMULA>
C14H25N3O2

>  <MW>
267

>  <EXACT MASS>
267.194677

>  <CASNO>
2648610095

>  <ID>
99

>  <NUM PEAKS>
44

>  <MASS SPECTRAL PEAKS>
15 13
20 9
27 12
29 28
30 320
39 26
41 142
42 27
43 234
44 119
53 14
54 26
55 227
56 54
58 28
60 63
65 8
67 33
69 113
72 228
73 114
79 6
83 54
84 10
86 139
87 64
96 203
100 105
101 70
111 131
112 75
113 222
114 999
115 81
128 58
154 117
156 50
167 313
168 22
181 31
195 37
216 10
224 89
227 15

$$$$
1,8-DIAZACYCLOTETRADECANE-2,9-DIONE
  ACD/LABS04112410592D
CAS rn = 5776794, Library ID = 100
 16 16  0  0  0  0  0  0  0  0  1 V2000
    7.0502   -5.1785    0.0000 C   0  0  0  0  0  0  0  0  0  0  0  0
    7.7214   -4.0290    0.0000 N   0  0  0  0  0  0  0  0  0  0  0  0
   11.7085   -4.0291    0.0000 C   0  0  0  0  0  0  0  0  0  0  0  0
   11.0373   -2.8728    0.0000 C   0  0  0  0  0  0  0  0  0  0  0  0
    7.7213   -6.3348    0.0000 C   0  0  0  0  0  0  0  0  0  0  0  0
    5.7202   -5.1777    0.0000 O   0  0  0  0  0  0  0  0  0  0  0  0
    9.0504   -4.0290    0.0000 C   0  0  0  0  0  0  0  0  0  0  0  0
    9.0503   -6.3349    0.0000 C   0  0  0  0  0  0  0  0  0  0  0  0
    9.7082   -7.4845    0.0000 C   0  0  0  0  0  0  0  0  0  0  0  0
   11.0372   -7.4845    0.0000 C   0  0  0  0  0  0  0  0  0  0  0  0
   11.7084   -6.3349    0.0000 C   0  0  0  0  0  0  0  0  0  0  0  0
   13.0375   -4.0291    0.0000 C   0  0  0  0  0  0  0  0  0  0  0  0
    9.7083   -2.8728    0.0000 C   0  0  0  0  0  0  0  0  0  0  0  0
   13.6953   -5.1788    0.0000 C   0  0  0  0  0  0  0  0  0  0  0  0
   13.0374   -6.3350    0.0000 N   0  0  0  0  0  0  0  0  0  0  0  0
   15.0253   -5.1780    0.0000 O   0  0  0  0  0  0  0  0  0  0  0  0
  1  2  1  0  0  0  0
  1  5  1  0  0  0  0
  1  6  2  0  0  0  0
  2  7  1  0  0  0  0
  3  4  1  0  0  0  0
  3 12  1  0  0  0  0
  4 13  1  0  0  0  0
  5  8  1  0  0  0  0
  7 13  1  0  0  0  0
  8  9  1  0  0  0  0
  9 10  1  0  0  0  0
 10 11  1  0  0  0  0
 11 15  1  0  0  0  0
 12 14  1  0  0  0  0
 14 15  1  0  0  0  0
 14 16  2  0  0  0  0
M  END
>  <NAME>
1,8-Diazacyclotetradecane-2,9-dione

>  <INCHIKEY>
HERSSAVMHCMYSQ-UHFFFAOYSA-N

>  <RETENTION INDEX>
SemiStdNP=2262.6

>  <POLYMER>
Nylon 6 (11)

>  <FORMULA>
C12H22N2O2

>  <MW>
226

>  <EXACT MASS>
226.168128

>  <CASNO>
5776794

>  <ID>
100

>  <NUM PEAKS>
51

>  <MASS SPECTRAL PEAKS>
27 67
28 77
29 81
30 393
34 10
39 67
41 327
42 69
43 130
44 234
47 15
54 8
55 368
56 241
57 94
58 51
59 41
60 22
67 53
69 184
70 133
72 166
73 82
83 9
84 239
85 175
86 326
87 70
95 24
96 110
98 116
99 71
100 100
101 59
112 183
113 250
114 999
115 102
126 128
127 72
128 55
129 37
140 151
141 19
142 71
154 49
155 62
169 20
198 342
199 20
226 44

$$$$
N-(5-CYANOPENTYL)HEXANAMIDE
  ACD/LABS04112410502D
CAS rn = 100384392, Library ID = 101
 15 14  0  0  0  0  0  0  0  0  1 V2000
   11.4142   -4.5281    0.0000 C   0  0  0  0  0  0  0  0  0  0  0  0
   10.2624   -5.1931    0.0000 C   0  0  0  0  0  0  0  0  0  0  0  0
    9.1106   -4.5281    0.0000 C   0  0  0  0  0  0  0  0  0  0  0  0
    7.9588   -5.1931    0.0000 C   0  0  0  0  0  0  0  0  0  0  0  0
    6.8070   -4.5281    0.0000 C   0  0  0  0  0  0  0  0  0  0  0  0
    5.6552   -5.1931    0.0000 C   0  0  0  0  0  0  0  0  0  0  0  0
   11.4142   -3.1981    0.0000 O   0  0  0  0  0  0  0  0  0  0  0  0
   12.5660   -5.1931    0.0000 N   0  0  0  0  0  0  0  0  0  0  0  0
   13.7179   -4.5281    0.0000 C   0  0  0  0  0  0  0  0  0  0  0  0
   14.8697   -5.1931    0.0000 C   0  0  0  0  0  0  0  0  0  0  0  0
   16.0215   -4.5281    0.0000 C   0  0  0  0  0  0  0  0  0  0  0  0
   17.1733   -5.1931    0.0000 C   0  0  0  0  0  0  0  0  0  0  0  0
   18.3251   -4.5281    0.0000 C   0  0  0  0  0  0  0  0  0  0  0  0
   19.4769   -5.1931    0.0000 C   0  0  0  0  0  0  0  0  0  0  0  0
   20.6287   -5.8581    0.0000 N   0  0  0  0  0  0  0  0  0  0  0  0
  1  2  1  0  0  0  0
  2  3  1  0  0  0  0
  3  4  1  0  0  0  0
  4  5  1  0  0  0  0
  5  6  1  0  0  0  0
  1  7  2  0  0  0  0
  1  8  1  0  0  0  0
  9 10  1  0  0  0  0
 10 11  1  0  0  0  0
 11 12  1  0  0  0  0
 12 13  1  0  0  0  0
 14 15  3  0  0  0  0
 13 14  1  0  0  0  0
  8  9  1  0  0  0  0
M  END
>  <NAME>
N-(5-Cyanopentyl)hexanamide

>  <INCHIKEY>
BVWZHYFXLJWCJP-UHFFFAOYSA-N

>  <POLYMER>
Nylon 6 (11)

>  <RETENTION INDEX>
SemiStdNP=1908.2

>  <FORMULA>
C12H22N2O

>  <MW>
210

>  <EXACT MASS>
210.173213

>  <CASNO>
100384392

>  <ID>
101

>  <NUM PEAKS>
45

>  <MASS SPECTRAL PEAKS>
19 38
27 189
29 240
30 889
39 127
41 574
42 212
43 999
44 421
53 67
54 92
55 651
56 56
58 224
59 106
60 71
68 47
69 229
71 507
72 313
73 334
78 32
82 95
83 253
86 237
87 262
95 97
96 636
97 43
99 843
100 497
101 109
109 25
111 47
113 216
114 868
115 69
116 44
128 118
154 593
156 239
167 235
170 96
174 37
181 93

$$$$
N-(5-CYANOPENTYL)HEX-5-ENAMIDE
  ACD/LABS04112410482D
CAS rn = 2648610084, Library ID = 102
 15 14  0  0  0  0  0  0  0  0  1 V2000
    9.9939   -4.1790    0.0000 C   0  0  0  0  0  0  0  0  0  0  0  0
    8.8421   -4.8440    0.0000 C   0  0  0  0  0  0  0  0  0  0  0  0
    7.6903   -4.1790    0.0000 C   0  0  0  0  0  0  0  0  0  0  0  0
    6.5385   -4.8440    0.0000 C   0  0  0  0  0  0  0  0  0  0  0  0
    5.3867   -4.1790    0.0000 C   0  0  0  0  0  0  0  0  0  0  0  0
    4.2349   -4.8440    0.0000 C   0  0  0  0  0  0  0  0  0  0  0  0
    9.9939   -2.8490    0.0000 O   0  0  0  0  0  0  0  0  0  0  0  0
   11.1457   -4.8440    0.0000 N   0  0  0  0  0  0  0  0  0  0  0  0
   12.2976   -4.1790    0.0000 C   0  0  0  0  0  0  0  0  0  0  0  0
   13.4494   -4.8440    0.0000 C   0  0  0  0  0  0  0  0  0  0  0  0
   14.6012   -4.1790    0.0000 C   0  0  0  0  0  0  0  0  0  0  0  0
   15.7530   -4.8440    0.0000 C   0  0  0  0  0  0  0  0  0  0  0  0
   16.9048   -4.1790    0.0000 C   0  0  0  0  0  0  0  0  0  0  0  0
   18.0566   -4.8440    0.0000 C   0  0  0  0  0  0  0  0  0  0  0  0
   19.2084   -5.5090    0.0000 N   0  0  0  0  0  0  0  0  0  0  0  0
  1  2  1  0  0  0  0
  2  3  1  0  0  0  0
  3  4  1  0  0  0  0
  4  5  1  0  0  0  0
  5  6  2  0  0  0  0
  1  7  2  0  0  0  0
  1  8  1  0  0  0  0
  9 10  1  0  0  0  0
 10 11  1  0  0  0  0
 11 12  1  0  0  0  0
 12 13  1  0  0  0  0
 14 15  3  0  0  0  0
 13 14  1  0  0  0  0
  8  9  1  0  0  0  0
M  END
>  <NAME>
N-(5-Cyanopentyl)hex-5-enamide

>  <INCHIKEY>
VKHJYPLNHXPTCF-UHFFFAOYSA-N

>  <POLYMER>
Nylon 6 (11)

>  <RETENTION INDEX>
SemiStdNP=1899

>  <FORMULA>
C12H20N2O

>  <MW>
208

>  <EXACT MASS>
208.157563

>  <CASNO>
2648610084

>  <ID>
102

>  <NUM PEAKS>
50

>  <MASS SPECTRAL PEAKS>
27 149
28 224
29 130
30 654
39 258
41 999
42 167
43 115
44 327
45 18
47 15
53 82
54 209
55 858
56 48
57 53
58 142
59 88
60 115
65 26
67 138
68 60
69 750
70 70
72 490
73 350
79 24
82 71
83 194
84 131
86 184
87 255
94 15
95 71
96 423
97 461
98 84
100 459
101 81
111 98
112 40
113 161
114 876
115 60
126 81
127 71
140 34
154 599
167 18
168 236

$$$$
N-(5-CYANOPENTYL)BUTYRAMIDE
  ACD/LABS04112410362D
Library ID = 103
 13 12  0  0  0  0  0  0  0  0  1 V2000
    8.4116   -4.1790    0.0000 C   0  0  0  0  0  0  0  0  0  0  0  0
    7.2598   -4.8440    0.0000 C   0  0  0  0  0  0  0  0  0  0  0  0
    6.1080   -4.1790    0.0000 C   0  0  0  0  0  0  0  0  0  0  0  0
    4.9561   -4.8440    0.0000 C   0  0  0  0  0  0  0  0  0  0  0  0
    8.4116   -2.8490    0.0000 O   0  0  0  0  0  0  0  0  0  0  0  0
    9.5634   -4.8440    0.0000 N   0  0  0  0  0  0  0  0  0  0  0  0
   10.7152   -4.1790    0.0000 C   0  0  0  0  0  0  0  0  0  0  0  0
   11.8670   -4.8440    0.0000 C   0  0  0  0  0  0  0  0  0  0  0  0
   13.0188   -4.1790    0.0000 C   0  0  0  0  0  0  0  0  0  0  0  0
   14.1707   -4.8440    0.0000 C   0  0  0  0  0  0  0  0  0  0  0  0
   15.3225   -4.1790    0.0000 C   0  0  0  0  0  0  0  0  0  0  0  0
   16.4743   -4.8440    0.0000 C   0  0  0  0  0  0  0  0  0  0  0  0
   17.6261   -5.5090    0.0000 N   0  0  0  0  0  0  0  0  0  0  0  0
  1  2  1  0  0  0  0
  2  3  1  0  0  0  0
  3  4  1  0  0  0  0
  1  5  2  0  0  0  0
  1  6  1  0  0  0  0
  7  8  1  0  0  0  0
  8  9  1  0  0  0  0
  9 10  1  0  0  0  0
 10 11  1  0  0  0  0
 12 13  3  0  0  0  0
 11 12  1  0  0  0  0
  6  7  1  0  0  0  0
M  END
>  <NAME>
N-(5-Cyanopentyl)butyramide

>  <INCHIKEY>
OBOHALUPJRCQKQ-UHFFFAOYSA-N

>  <POLYMER>
Nylon 6 (11)

>  <RETENTION INDEX>
SemiStdNP=1706.4

>  <FORMULA>
C10H18N2O

>  <MW>
182

>  <EXACT MASS>
182.141913

>  <ID>
103

>  <NUM PEAKS>
37

>  <MASS SPECTRAL PEAKS>
27 187
28 98
29 48
30 938
39 66
41 371
42 122
43 766
44 369
45 22
53 27
54 91
55 379
58 150
59 87
61 23
68 51
69 180
71 999
72 181
73 117
82 90
83 176
86 55
87 89
88 82
95 97
96 372
100 409
101 94
105 60
111 85
113 86
114 292
128 249
142 79
154 208

$$$$
N-(5-CYANOPENTYL)ACETAMIDE
  ACD/LABS04112410323D
CAS rn = 2413769954, Library ID = 104
 11 10  0  0  0  0  0  0  0  0  1 V2000
    7.5112   -4.1883    0.0000 C   0  0  0  0  0  0  0  0  0  0  0  0
    6.3684   -4.8498    0.0000 C   0  0  0  0  0  0  0  0  0  0  0  0
    7.5093   -2.8585    0.0000 O   0  0  0  0  0  0  0  0  0  0  0  0
    8.6635   -4.8528    0.0000 N   0  0  0  0  0  0  0  0  0  0  0  0
    9.8154   -4.1883    0.0000 C   0  0  0  0  0  0  0  0  0  0  0  0
   10.9677   -4.8528    0.0000 C   0  0  0  0  0  0  0  0  0  0  0  0
   12.1019   -4.1883    0.0000 C   0  0  0  0  0  0  0  0  0  0  0  0
   13.2541   -4.8440    0.0000 C   0  0  0  0  0  0  0  0  0  0  0  0
   14.4061   -4.1883    0.0000 C   0  0  0  0  0  0  0  0  0  0  0  0
   15.5583   -4.8440    0.0000 C   0  0  0  0  0  0  0  0  0  0  0  0
   16.7103   -5.5088    0.0000 N   0  0  0  0  0  0  0  0  0  0  0  0
  1  2  1  0  0  0  0
  1  3  2  0  0  0  0
  1  4  1  0  0  0  0
  5  6  1  0  0  0  0
  6  7  1  0  0  0  0
  7  8  1  0  0  0  0
  8  9  1  0  0  0  0
 10 11  3  0  0  0  0
  9 10  1  0  0  0  0
  4  5  1  0  0  0  0
M  END
>  <NAME>
N-(5-Cyanopentyl)acetamide

>  <INCHIKEY>
RBDIRRKDNRNHCM-UHFFFAOYSA-N

>  <POLYMER>
Nylon 6 (11)

>  <RETENTION INDEX>
SemiStdNP=1546.3

>  <FORMULA>
C8H14N2O

>  <MW>
154

>  <EXACT MASS>
154.110613

>  <CASNO>
2413769954

>  <ID>
104

>  <NUM PEAKS>
35

>  <MASS SPECTRAL PEAKS>
15 23
23 5
27 38
29 32
30 999
31 8
37 5
39 46
41 107
42 68
43 533
44 152
45 9
54 47
55 88
56 16
58 69
60 76
67 8
69 18
72 422
73 66
82 40
83 178
84 23
86 74
87 9
95 42
96 35
100 77
101 10
106 8
111 60
114 70
143 9

$$$$
CAPROLACTAM
  -NISTMS-12099911132D 1   1.0         0.0          
CAS rn = 105602, Library ID = 105
  8  8  0  0  0  0  0  0  0  0  0
   -0.8999   -0.0818    0.0000 C   0  0  0     0  0  0  0  0  0
   -0.7363    0.6954    0.0000 C   0  0  0     0  0  0  0  0  0
   -0.3681   -0.6954    0.0000 C   0  0  0     0  0  0  0  0  0
    0.0000    1.0635    0.0000 C   0  0  0     0  0  0  0  0  0
    0.4500   -0.6954    0.0000 C   0  0  0     0  0  0  0  0  0
    0.6954    0.7772    0.0000 N   0  0  0     0  3  0  0  0  0
    0.0000    1.9225    0.0000 O   0  0  0     0  2  0  0  0  0
    0.8999   -0.0409    0.0000 C   0  0  0     0  0  0  0  0  0
  1  2  1  0  0  0  0
  1  3  1  0  0  0  0
  2  4  1  0  0  0  0
  3  5  1  0  0  0  0
  4  6  1  0  0  0  0
  4  7  2  0  0  0  0
  5  8  1  0  0  0  0
  6  8  1  0  0  0  0
>  <NAME>
Caprolactam

>  <INCHIKEY>
JBKVHLHDHHXQEQ-UHFFFAOYSA-N

>  <RETENTION INDEX>
SemiStdNP=1280.6

>  <POLYMER>
Nylon 6 (11)

>  <FORMULA>
C6H11NO

>  <MW>
113

>  <EXACT MASS>
113.084064

>  <CASNO>
105602

>  <ID>
105

>  <NUM PEAKS>
45

>  <MASS SPECTRAL PEAKS>
15 13
26 27
27 132
28 183
29 88
30 633
31 9
37 4
38 18
39 171
40 48
41 368
42 451
43 136
44 51
45 2
50 10
51 16
52 12
53 33
54 35
55 999
56 658
57 83
58 8
59 8
65 7
66 6
67 93
68 54
69 31
70 13
72 4
80 1
83 77
84 446
85 592
86 28
94 3
95 3
96 3
98 16
112 25
113 574
114 46

$$$$
6-AMINOHEXANENITRILE
  ACD/LABS04112410192D
CAS rn = 2432748, Library ID = 106
  8  7  0  0  0  0  0  0  0  0  1 V2000
    8.6036   -5.2966    0.0000 N   0  0  0  0  0  0  0  0  0  0  0  0
    9.7555   -5.9616    0.0000 C   0  0  0  0  0  0  0  0  0  0  0  0
   10.9073   -5.2966    0.0000 C   0  0  0  0  0  0  0  0  0  0  0  0
   12.0591   -5.9616    0.0000 C   0  0  0  0  0  0  0  0  0  0  0  0
   13.2109   -5.2966    0.0000 C   0  0  0  0  0  0  0  0  0  0  0  0
   14.3627   -5.9616    0.0000 C   0  0  0  0  0  0  0  0  0  0  0  0
   15.5145   -5.2966    0.0000 C   0  0  0  0  0  0  0  0  0  0  0  0
   16.6663   -4.6316    0.0000 N   0  0  0  0  0  0  0  0  0  0  0  0
  1  2  1  0  0  0  0
  2  3  1  0  0  0  0
  3  4  1  0  0  0  0
  4  5  1  0  0  0  0
  5  6  1  0  0  0  0
  6  7  1  0  0  0  0
  7  8  3  0  0  0  0
M  END
>  <NAME>
6-Aminohexanenitrile

>  <INCHIKEY>
KBMSFJFLSXLIDJ-UHFFFAOYSA-N

>  <RETENTION INDEX>
SemiStdNP=1124.6

>  <POLYMER>
Nylon 6 (11)

>  <FORMULA>
C6H12N2

>  <MW>
112

>  <EXACT MASS>
112.1000485

>  <CASNO>
2432748

>  <ID>
106

>  <NUM PEAKS>
26

>  <MASS SPECTRAL PEAKS>
16 4
18 16
25 4
26 3
27 30
28 75
29 10
30 999
31 12
39 31
41 61
42 39
45 17
52 5
53 3
54 32
55 28
56 14
67 17
68 7
69 2
72 4
83 13
84 9
96 12
111 15

$$$$
5-HEXENENITRILE
  -NISTMS-12099911132D 1   1.0         0.0          
CAS rn = 5048191, Library ID = 107
  7  6  0  0  0  0  0  0  0  0  0
    0.0000    0.6074    0.0000 C   0  0  0     0  0  0  0  0  0
   -0.7289    0.2430    0.0000 C   0  0  0     0  0  0  0  0  0
    0.7289    0.2430    0.0000 C   0  0  0     0  0  0  0  0  0
   -1.4577    0.6074    0.0000 C   0  0  0     0  0  0  0  0  0
    1.4577    0.6074    0.0000 C   0  0  0     0  0  0  0  0  0
    2.1866    0.9313    0.0000 N   0  0  0     0  3  0  0  0  0
   -2.1866    0.2430    0.0000 C   0  0  0     0  0  0  0  0  0
  1  2  1  0  0  0  0
  1  3  1  0  0  0  0
  2  4  1  0  0  0  0
  3  5  1  0  0  0  0
  4  7  2  0  0  0  0
  5  6  3  0  0  0  0
>  <NAME>
5-Hexenenitrile

>  <INCHIKEY>
UNAQSRLBVVDYGP-UHFFFAOYSA-N

>  <RETENTION INDEX>
SemiStdNP=855

>  <POLYMER>
Nylon 6 (11)

>  <FORMULA>
C6H9N

>  <MW>
95

>  <EXACT MASS>
95.073499

>  <CASNO>
5048191

>  <ID>
107

>  <NUM PEAKS>
24

>  <MASS SPECTRAL PEAKS>
26 30
27 152
28 87
29 142
31 11
38 33
39 262
40 35
41 669
42 35
50 25
51 35
53 97
54 90
55 999
56 38
60 14
65 10
67 80
68 27
80 20
91 10
94 44
95 31

$$$$
C30H58N2O2
                                 
No Structure
  0  0  0  0  0  0  0  0  0  0  0
>  <NAME>
C30H58N2O2

>  <POLYMER>
Nylon 12 (21)

>  <RETENTION INDEX>
SemiStdNP=3918.5

>  <FORMULA>
C30H58N2O2

>  <MW>
478

>  <EXACT MASS>
478.44983

>  <ID>
108

>  <COMMENT>
unknown strucuture

>  <NUM PEAKS>
87

>  <MASS SPECTRAL PEAKS>
27 36
29 74
30 665
39 48
40 16
41 275
42 16
43 461
44 227
47 19
54 34
55 460
56 229
57 114
58 95
59 38
60 241
67 119
69 290
70 47
72 457
73 367
79 15
81 118
82 71
83 689
84 45
86 394
87 152
93 69
95 67
96 167
97 999
98 120
100 308
101 103
105 16
110 171
111 64
112 18
114 267
115 78
124 38
128 121
142 130
156 241
157 33
163 89
170 258
171 33
180 24
181 83
184 90
185 45
195 665
196 112
197 487
198 857
199 131
212 86
223 29
239 39
240 524
241 75
251 904
252 183
254 21
265 139
279 56
293 143
297 121
302 20
307 102
311 61
320 24
321 84
325 56
335 64
339 94
349 73
353 112
363 133
364 27
392 80
395 182
396 46
459 17

$$$$
1,14-DIAZACYCLOHEXACOSANE-2,15-DIONE
  ChemDraw04122412012D 
CAS rn = 4272086, Library ID = 109
 28 28  0  0  0  0  0  0  0  0999 V2000 
    2.1434    0.8250    0.0000 N   0  0  0  0  0  0  0  0  0  0  0  0 
    2.8579    0.4125    0.0000 C   0  0  0  0  0  0  0  0  0  0  0  0 
    2.8579   -0.4125    0.0000 C   0  0  0  0  0  0  0  0  0  0  0  0 
    2.1434   -0.8250    0.0000 C   0  0  0  0  0  0  0  0  0  0  0  0 
    2.1434   -1.6500    0.0000 C   0  0  0  0  0  0  0  0  0  0  0  0 
    1.4289   -2.0625    0.0000 C   0  0  0  0  0  0  0  0  0  0  0  0 
    1.4289   -2.8875    0.0000 C   0  0  0  0  0  0  0  0  0  0  0  0 
    0.7145   -3.3000    0.0000 C   0  0  0  0  0  0  0  0  0  0  0  0 
   -0.0000   -2.8875    0.0000 C   0  0  0  0  0  0  0  0  0  0  0  0 
   -0.7145   -3.3000    0.0000 C   0  0  0  0  0  0  0  0  0  0  0  0 
   -1.4289   -2.8875    0.0000 C   0  0  0  0  0  0  0  0  0  0  0  0 
   -1.4289   -2.0625    0.0000 C   0  0  0  0  0  0  0  0  0  0  0  0 
   -2.1434   -1.6500    0.0000 C   0  0  0  0  0  0  0  0  0  0  0  0 
   -2.1434   -0.8250    0.0000 N   0  0  0  0  0  0  0  0  0  0  0  0 
   -2.8579   -0.4125    0.0000 C   0  0  0  0  0  0  0  0  0  0  0  0 
   -2.8579    0.4125    0.0000 C   0  0  0  0  0  0  0  0  0  0  0  0 
   -2.1434    0.8250    0.0000 C   0  0  0  0  0  0  0  0  0  0  0  0 
   -2.1434    1.6500    0.0000 C   0  0  0  0  0  0  0  0  0  0  0  0 
   -1.4289    2.0625    0.0000 C   0  0  0  0  0  0  0  0  0  0  0  0 
   -1.4289    2.8875    0.0000 C   0  0  0  0  0  0  0  0  0  0  0  0 
   -0.7145    3.3000    0.0000 C   0  0  0  0  0  0  0  0  0  0  0  0 
    0.0000    2.8875    0.0000 C   0  0  0  0  0  0  0  0  0  0  0  0 
    0.7145    3.3000    0.0000 C   0  0  0  0  0  0  0  0  0  0  0  0 
    1.4289    2.8875    0.0000 C   0  0  0  0  0  0  0  0  0  0  0  0 
    1.4289    2.0625    0.0000 C   0  0  0  0  0  0  0  0  0  0  0  0 
    2.1434    1.6500    0.0000 C   0  0  0  0  0  0  0  0  0  0  0  0 
    3.5724    0.8250    0.0000 O   0  0  0  0  0  0  0  0  0  0  0  0 
   -3.5724   -0.8250    0.0000 O   0  0  0  0  0  0  0  0  0  0  0  0 
  1  2  1  0       
  2  3  1  0       
  3  4  1  0       
  4  5  1  0       
  5  6  1  0       
  6  7  1  0       
  7  8  1  0       
  8  9  1  0       
  9 10  1  0       
 10 11  1  0       
 11 12  1  0       
 12 13  1  0       
 13 14  1  0       
 14 15  1  0       
 15 16  1  0       
 16 17  1  0       
 17 18  1  0       
 18 19  1  0       
 19 20  1  0       
 20 21  1  0       
 21 22  1  0       
 22 23  1  0       
 23 24  1  0       
 24 25  1  0       
 25 26  1  0       
  1 26  1  0       
  2 27  2  0       
 15 28  2  0       
M  STY  1   1 DAT 
M  SLB  1   1   1 
M  SAL   1 15   1   2   3   4   5   6   7   8   9  10  11  12  13  14  15 
M  SAL   1 13  16  17  18  19  20  21  22  23  24  25  26  27  28 
M  SBL   1 15   1   2   3   4   5   6   7   8   9  10  11  12  13  14  15 
M  SBL   1 13  16  17  18  19  20  21  22  23  24  25  26  27  28 
M  SDD   1    -3.6268   -3.9100    DA    ALL  1       5 
M  SED   1 1,14-Diazacyclohexacosane-2,15-dione 
M  END
>  <NAME>
1,14-Diazacyclohexacosane-2,15-dione

>  <INCHIKEY>
QIAFMOCNLCQPND-UHFFFAOYSA-N

>  <POLYMER>
Nylon 12 (21)

>  <RETENTION INDEX>
SemiStdNP=3520.5

>  <FORMULA>
C24H46N2O2

>  <MW>
394

>  <EXACT MASS>
394.355928

>  <CASNO>
4272086

>  <ID>
109

>  <NUM PEAKS>
154

>  <MASS SPECTRAL PEAKS>
19 7
22 6
27 22
29 76
30 322
37 4
39 28
41 360
42 83
43 340
44 242
45 27
46 13
53 30
54 75
55 895
56 296
57 228
58 116
59 47
60 87
65 4
67 149
68 46
69 412
70 122
71 62
72 282
73 223
74 22
79 48
81 139
82 44
83 254
84 241
85 78
86 336
87 199
88 14
91 7
93 37
95 123
96 52
97 197
98 196
99 153
100 382
101 131
102 11
107 26
109 34
110 37
111 64
112 183
113 149
114 269
115 72
121 18
124 24
125 24
126 167
127 40
128 203
129 64
135 6
138 16
140 144
141 34
142 254
143 67
154 263
155 57
156 313
157 49
163 36
168 132
169 33
170 255
171 49
172 4
180 14
181 43
182 130
183 35
184 146
185 100
186 18
195 68
196 194
197 232
198 999
199 170
210 369
211 85
212 182
213 73
215 20
224 241
225 56
226 175
227 69
230 5
238 154
239 71
240 220
241 99
251 21
252 375
253 132
254 118
255 53
266 220
267 86
268 129
269 41
270 12
280 194
281 86
282 65
283 75
294 197
295 98
296 74
297 121
298 14
308 228
309 187
310 56
311 80
312 5
322 272
323 198
324 35
325 35
330 3
333 5
335 6
336 40
337 204
338 61
339 43
340 4
349 48
351 310
352 80
353 207
354 46
365 154
366 62
375 5
379 31
393 52
394 296
395 92

$$$$
N-(11-CYANOUNDECYL)-11-DODECENAMIDE
  ACD/LABS04122411582D
Library ID = 110
 27 26  0  0  0  0  0  0  0  0  1 V2000
   14.4698   -7.3207    0.0000 C   0  0  0  0  0  0  0  0  0  0  0  0
   13.3136   -7.9781    0.0000 C   0  0  0  0  0  0  0  0  0  0  0  0
   12.1584   -7.3207    0.0000 C   0  0  0  0  0  0  0  0  0  0  0  0
   11.0022   -7.9781    0.0000 C   0  0  0  0  0  0  0  0  0  0  0  0
    9.8470   -7.3207    0.0000 C   0  0  0  0  0  0  0  0  0  0  0  0
    8.6908   -7.9781    0.0000 C   0  0  0  0  0  0  0  0  0  0  0  0
    7.5356   -7.3207    0.0000 C   0  0  0  0  0  0  0  0  0  0  0  0
    6.3795   -7.9781    0.0000 C   0  0  0  0  0  0  0  0  0  0  0  0
    5.2233   -7.3207    0.0000 C   0  0  0  0  0  0  0  0  0  0  0  0
    4.0771   -7.9781    0.0000 C   0  0  0  0  0  0  0  0  0  0  0  0
    2.9209   -7.3207    0.0000 C   0  0  0  0  0  0  0  0  0  0  0  0
    1.7657   -7.9781    0.0000 C   0  0  0  0  0  0  0  0  0  0  0  0
   14.4698   -5.9878    0.0000 O   0  0  0  0  0  0  0  0  0  0  0  0
   15.6259   -7.9781    0.0000 N   0  0  0  0  0  0  0  0  0  0  0  0
   16.7622   -7.3207    0.0000 C   0  0  0  0  0  0  0  0  0  0  0  0
   17.9184   -7.9781    0.0000 C   0  0  0  0  0  0  0  0  0  0  0  0
   19.0745   -7.3207    0.0000 C   0  0  0  0  0  0  0  0  0  0  0  0
   20.2298   -7.9781    0.0000 C   0  0  0  0  0  0  0  0  0  0  0  0
   21.3859   -7.3207    0.0000 C   0  0  0  0  0  0  0  0  0  0  0  0
   22.5412   -7.9872    0.0000 C   0  0  0  0  0  0  0  0  0  0  0  0
   23.6973   -7.3207    0.0000 C   0  0  0  0  0  0  0  0  0  0  0  0
   24.8526   -7.9872    0.0000 C   0  0  0  0  0  0  0  0  0  0  0  0
   26.0087   -7.3207    0.0000 C   0  0  0  0  0  0  0  0  0  0  0  0
   27.1649   -7.9872    0.0000 C   0  0  0  0  0  0  0  0  0  0  0  0
   28.3111   -7.3207    0.0000 C   0  0  0  0  0  0  0  0  0  0  0  0
   29.4672   -7.9872    0.0000 C   0  0  0  0  0  0  0  0  0  0  0  0
   30.6225   -8.6536    0.0000 N   0  0  0  0  0  0  0  0  0  0  0  0
  1  2  1  0  0  0  0
  2  3  1  0  0  0  0
  3  4  1  0  0  0  0
  4  5  1  0  0  0  0
  5  6  1  0  0  0  0
  6  7  1  0  0  0  0
  7  8  1  0  0  0  0
  8  9  1  0  0  0  0
  9 10  1  0  0  0  0
 10 11  1  0  0  0  0
 11 12  2  0  0  0  0
  1 13  2  0  0  0  0
  1 14  1  0  0  0  0
 15 16  1  0  0  0  0
 16 17  1  0  0  0  0
 17 18  1  0  0  0  0
 18 19  1  0  0  0  0
 19 20  1  0  0  0  0
 20 21  1  0  0  0  0
 21 22  1  0  0  0  0
 22 23  1  0  0  0  0
 23 24  1  0  0  0  0
 24 25  1  0  0  0  0
 26 27  3  0  0  0  0
 25 26  1  0  0  0  0
 14 15  1  0  0  0  0
M  END
>  <NAME>
N-(11-Cyanoundecyl)-11-dodecenamide

>  <INCHIKEY>
IRCTVPXRRMUSNT-UHFFFAOYSA-N

>  <POLYMER>
Nylon 12 (21)

>  <RETENTION INDEX>
SemiStdNP=3247.9

>  <FORMULA>
C24H44N2O

>  <MW>
376

>  <EXACT MASS>
376.345364

>  <ID>
110

>  <COMMENT>
double bond unsure

>  <NUM PEAKS>
72

>  <MASS SPECTRAL PEAKS>
27 50
29 102
30 503
39 53
41 443
42 82
43 457
44 264
54 115
55 703
56 221
57 153
58 85
59 29
60 126
61 30
67 156
68 36
69 304
70 62
71 52
72 261
73 343
79 44
81 144
82 86
83 637
84 65
85 38
86 344
87 219
94 38
95 95
96 474
97 999
98 182
99 29
100 299
101 97
108 35
110 394
111 138
112 83
114 142
115 13
122 76
124 41
128 96
140 28
142 258
150 37
153 30
156 166
170 135
184 57
185 68
196 51
198 590
199 76
209 34
210 62
212 72
226 67
240 214
251 120
263 30
310 75
319 36
333 82
335 37
361 23
376 119

$$$$
N-(11-CYANOUNDECYL)-11-DODECENAMIDE
  ACD/LABS04122411582D
Library ID = 111
 27 26  0  0  0  0  0  0  0  0  1 V2000
   14.4698   -7.3207    0.0000 C   0  0  0  0  0  0  0  0  0  0  0  0
   13.3136   -7.9781    0.0000 C   0  0  0  0  0  0  0  0  0  0  0  0
   12.1584   -7.3207    0.0000 C   0  0  0  0  0  0  0  0  0  0  0  0
   11.0022   -7.9781    0.0000 C   0  0  0  0  0  0  0  0  0  0  0  0
    9.8470   -7.3207    0.0000 C   0  0  0  0  0  0  0  0  0  0  0  0
    8.6908   -7.9781    0.0000 C   0  0  0  0  0  0  0  0  0  0  0  0
    7.5356   -7.3207    0.0000 C   0  0  0  0  0  0  0  0  0  0  0  0
    6.3795   -7.9781    0.0000 C   0  0  0  0  0  0  0  0  0  0  0  0
    5.2233   -7.3207    0.0000 C   0  0  0  0  0  0  0  0  0  0  0  0
    4.0771   -7.9781    0.0000 C   0  0  0  0  0  0  0  0  0  0  0  0
    2.9209   -7.3207    0.0000 C   0  0  0  0  0  0  0  0  0  0  0  0
    1.7657   -7.9781    0.0000 C   0  0  0  0  0  0  0  0  0  0  0  0
   14.4698   -5.9878    0.0000 O   0  0  0  0  0  0  0  0  0  0  0  0
   15.6259   -7.9781    0.0000 N   0  0  0  0  0  0  0  0  0  0  0  0
   16.7622   -7.3207    0.0000 C   0  0  0  0  0  0  0  0  0  0  0  0
   17.9184   -7.9781    0.0000 C   0  0  0  0  0  0  0  0  0  0  0  0
   19.0745   -7.3207    0.0000 C   0  0  0  0  0  0  0  0  0  0  0  0
   20.2298   -7.9781    0.0000 C   0  0  0  0  0  0  0  0  0  0  0  0
   21.3859   -7.3207    0.0000 C   0  0  0  0  0  0  0  0  0  0  0  0
   22.5412   -7.9872    0.0000 C   0  0  0  0  0  0  0  0  0  0  0  0
   23.6973   -7.3207    0.0000 C   0  0  0  0  0  0  0  0  0  0  0  0
   24.8526   -7.9872    0.0000 C   0  0  0  0  0  0  0  0  0  0  0  0
   26.0087   -7.3207    0.0000 C   0  0  0  0  0  0  0  0  0  0  0  0
   27.1649   -7.9872    0.0000 C   0  0  0  0  0  0  0  0  0  0  0  0
   28.3111   -7.3207    0.0000 C   0  0  0  0  0  0  0  0  0  0  0  0
   29.4672   -7.9872    0.0000 C   0  0  0  0  0  0  0  0  0  0  0  0
   30.6225   -8.6536    0.0000 N   0  0  0  0  0  0  0  0  0  0  0  0
  1  2  1  0  0  0  0
  2  3  1  0  0  0  0
  3  4  1  0  0  0  0
  4  5  1  0  0  0  0
  5  6  1  0  0  0  0
  6  7  1  0  0  0  0
  7  8  1  0  0  0  0
  8  9  1  0  0  0  0
  9 10  1  0  0  0  0
 10 11  1  0  0  0  0
 11 12  2  0  0  0  0
  1 13  2  0  0  0  0
  1 14  1  0  0  0  0
 15 16  1  0  0  0  0
 16 17  1  0  0  0  0
 17 18  1  0  0  0  0
 18 19  1  0  0  0  0
 19 20  1  0  0  0  0
 20 21  1  0  0  0  0
 21 22  1  0  0  0  0
 22 23  1  0  0  0  0
 23 24  1  0  0  0  0
 24 25  1  0  0  0  0
 26 27  3  0  0  0  0
 25 26  1  0  0  0  0
 14 15  1  0  0  0  0
M  END
>  <NAME>
N-(11-Cyanoundecyl)-11-dodecenamide

>  <INCHIKEY>
IRCTVPXRRMUSNT-UHFFFAOYSA-N

>  <POLYMER>
Nylon 12 (21)

>  <RETENTION INDEX>
SemiStdNP=3163.5

>  <FORMULA>
C24H44N2O

>  <MW>
376

>  <EXACT MASS>
376.345364

>  <ID>
111

>  <COMMENT>
possible mix, double bond unsure

>  <NUM PEAKS>
109

>  <MASS SPECTRAL PEAKS>
15 4
27 25
29 74
30 254
39 43
41 298
42 63
43 248
44 196
45 26
50 5
53 23
54 75
55 509
56 87
57 161
58 72
59 31
60 45
67 109
68 24
69 254
70 32
71 56
72 136
73 267
74 11
79 36
81 128
82 63
83 586
84 78
85 44
86 226
87 156
88 7
91 9
93 30
95 95
96 185
97 999
98 114
99 16
100 215
101 95
107 22
109 18
110 175
111 99
112 25
114 143
115 41
121 24
122 10
124 46
126 17
128 101
129 28
138 33
140 11
142 85
143 9
152 4
153 6
154 12
156 137
157 9
163 20
166 9
168 18
170 58
180 39
181 9
182 17
184 22
185 15
195 84
196 8
197 248
198 334
199 49
200 7
209 6
210 56
211 5
212 17
223 25
224 19
226 4
238 124
239 18
241 5
251 288
252 104
265 43
266 27
268 5
279 22
280 31
288 3
293 46
294 50
307 19
308 16
321 5
333 6
335 44
336 88
337 15

$$$$
N-(11-CYANOUNDECYL)-10-UNDECENAMIDE
  ACD/LABS04112416202D
Library ID = 112
 26 25  0  0  0  0  0  0  0  0  1 V2000
   14.4005   -2.4352    0.0000 C   0  0  0  0  0  0  0  0  0  0  0  0
   13.2443   -3.0925    0.0000 C   0  0  0  0  0  0  0  0  0  0  0  0
   12.0881   -2.4352    0.0000 C   0  0  0  0  0  0  0  0  0  0  0  0
   10.9319   -3.0925    0.0000 C   0  0  0  0  0  0  0  0  0  0  0  0
    9.7757   -2.4352    0.0000 C   0  0  0  0  0  0  0  0  0  0  0  0
    8.6187   -3.0925    0.0000 C   0  0  0  0  0  0  0  0  0  0  0  0
    7.4625   -2.4352    0.0000 C   0  0  0  0  0  0  0  0  0  0  0  0
    6.3063   -3.0925    0.0000 C   0  0  0  0  0  0  0  0  0  0  0  0
    5.1501   -2.4352    0.0000 C   0  0  0  0  0  0  0  0  0  0  0  0
    4.0034   -3.0925    0.0000 C   0  0  0  0  0  0  0  0  0  0  0  0
    2.8472   -2.4352    0.0000 C   0  0  0  0  0  0  0  0  0  0  0  0
   14.4005   -1.1015    0.0000 O   0  0  0  0  0  0  0  0  0  0  0  0
   15.5567   -3.0925    0.0000 N   0  0  0  0  0  0  0  0  0  0  0  0
   16.7034   -2.4352    0.0000 C   0  0  0  0  0  0  0  0  0  0  0  0
   17.8501   -3.0925    0.0000 C   0  0  0  0  0  0  0  0  0  0  0  0
   19.0063   -2.4352    0.0000 C   0  0  0  0  0  0  0  0  0  0  0  0
   20.1625   -3.0925    0.0000 C   0  0  0  0  0  0  0  0  0  0  0  0
   21.3187   -2.4352    0.0000 C   0  0  0  0  0  0  0  0  0  0  0  0
   22.4749   -3.1021    0.0000 C   0  0  0  0  0  0  0  0  0  0  0  0
   23.6311   -2.4352    0.0000 C   0  0  0  0  0  0  0  0  0  0  0  0
   24.7881   -3.1021    0.0000 C   0  0  0  0  0  0  0  0  0  0  0  0
   25.9443   -2.4352    0.0000 C   0  0  0  0  0  0  0  0  0  0  0  0
   27.1005   -3.1021    0.0000 C   0  0  0  0  0  0  0  0  0  0  0  0
   28.2567   -2.4352    0.0000 C   0  0  0  0  0  0  0  0  0  0  0  0
   29.4034   -3.1021    0.0000 C   0  0  0  0  0  0  0  0  0  0  0  0
   30.5596   -3.7689    0.0000 N   0  0  0  0  0  0  0  0  0  0  0  0
  1  2  1  0  0  0  0
  2  3  1  0  0  0  0
  3  4  1  0  0  0  0
  4  5  1  0  0  0  0
  5  6  1  0  0  0  0
  6  7  1  0  0  0  0
  7  8  1  0  0  0  0
  8  9  1  0  0  0  0
  9 10  1  0  0  0  0
 10 11  2  0  0  0  0
  1 12  2  0  0  0  0
  1 13  1  0  0  0  0
 14 15  1  0  0  0  0
 15 16  1  0  0  0  0
 16 17  1  0  0  0  0
 17 18  1  0  0  0  0
 18 19  1  0  0  0  0
 19 20  1  0  0  0  0
 20 21  1  0  0  0  0
 21 22  1  0  0  0  0
 22 23  1  0  0  0  0
 23 24  1  0  0  0  0
 25 26  3  0  0  0  0
 24 25  1  0  0  0  0
 13 14  1  0  0  0  0
M  END
>  <NAME>
N-(11-Cyanoundecyl)-10-undecenamide

>  <INCHIKEY>
VLQVPOQLNPGJHR-UHFFFAOYSA-N

>  <POLYMER>
Nylon 12 (21)

>  <RETENTION INDEX>
SemiStdNP=3056.5

>  <FORMULA>
C23H42N2O

>  <MW>
362

>  <EXACT MASS>
362.329714

>  <ID>
112

>  <NUM PEAKS>
83

>  <MASS SPECTRAL PEAKS>
27 35
29 97
30 408
39 49
41 389
42 71
43 289
44 269
45 30
48 8
53 13
54 90
55 676
56 85
57 140
58 82
59 38
60 41
67 193
68 37
69 295
70 31
71 32
72 165
73 336
79 48
81 147
82 81
83 717
84 99
85 56
86 302
87 199
93 56
95 59
96 221
97 999
98 123
99 13
100 297
101 116
107 16
109 12
110 215
111 88
112 22
114 198
115 43
124 55
126 18
128 101
129 13
138 43
142 88
149 56
156 175
166 12
168 13
170 69
180 52
194 15
195 109
196 71
197 291
198 357
199 38
210 16
212 8
223 30
224 160
225 11
238 74
251 331
252 68
265 64
266 41
279 33
280 64
293 19
307 23
321 52
322 92
351 12

$$$$
N-(11-CYANOUNDECYL)DECANAMIDE
  ACD/LABS04112416162D
Library ID = 113
 25 24  0  0  0  0  0  0  0  0  1 V2000
   14.6257   -3.4808    0.0000 C   0  0  0  0  0  0  0  0  0  0  0  0
   13.4739   -4.1458    0.0000 C   0  0  0  0  0  0  0  0  0  0  0  0
   12.3221   -3.4808    0.0000 C   0  0  0  0  0  0  0  0  0  0  0  0
   11.1703   -4.1458    0.0000 C   0  0  0  0  0  0  0  0  0  0  0  0
   10.0185   -3.4808    0.0000 C   0  0  0  0  0  0  0  0  0  0  0  0
    8.8667   -4.1458    0.0000 C   0  0  0  0  0  0  0  0  0  0  0  0
    7.7148   -3.4808    0.0000 C   0  0  0  0  0  0  0  0  0  0  0  0
    6.5630   -4.1458    0.0000 C   0  0  0  0  0  0  0  0  0  0  0  0
    5.4112   -3.4808    0.0000 C   0  0  0  0  0  0  0  0  0  0  0  0
    4.2594   -4.1458    0.0000 C   0  0  0  0  0  0  0  0  0  0  0  0
   14.6257   -2.1508    0.0000 O   0  0  0  0  0  0  0  0  0  0  0  0
   15.7775   -4.1458    0.0000 N   0  0  0  0  0  0  0  0  0  0  0  0
   16.9294   -3.4808    0.0000 C   0  0  0  0  0  0  0  0  0  0  0  0
   18.0812   -4.1458    0.0000 C   0  0  0  0  0  0  0  0  0  0  0  0
   19.2330   -3.4808    0.0000 C   0  0  0  0  0  0  0  0  0  0  0  0
   20.3848   -4.1458    0.0000 C   0  0  0  0  0  0  0  0  0  0  0  0
   21.5366   -3.4808    0.0000 C   0  0  0  0  0  0  0  0  0  0  0  0
   22.6884   -4.1458    0.0000 C   0  0  0  0  0  0  0  0  0  0  0  0
   23.8402   -3.4808    0.0000 C   0  0  0  0  0  0  0  0  0  0  0  0
   24.9920   -4.1458    0.0000 C   0  0  0  0  0  0  0  0  0  0  0  0
   26.1439   -3.4808    0.0000 C   0  0  0  0  0  0  0  0  0  0  0  0
   27.2957   -4.1458    0.0000 C   0  0  0  0  0  0  0  0  0  0  0  0
   28.4475   -3.4808    0.0000 C   0  0  0  0  0  0  0  0  0  0  0  0
   29.5993   -4.1458    0.0000 C   0  0  0  0  0  0  0  0  0  0  0  0
   30.7511   -4.8108    0.0000 N   0  0  0  0  0  0  0  0  0  0  0  0
  1  2  1  0  0  0  0
  2  3  1  0  0  0  0
  3  4  1  0  0  0  0
  4  5  1  0  0  0  0
  5  6  1  0  0  0  0
  6  7  1  0  0  0  0
  7  8  1  0  0  0  0
  8  9  1  0  0  0  0
  9 10  1  0  0  0  0
  1 11  2  0  0  0  0
  1 12  1  0  0  0  0
 13 14  1  0  0  0  0
 14 15  1  0  0  0  0
 15 16  1  0  0  0  0
 16 17  1  0  0  0  0
 17 18  1  0  0  0  0
 18 19  1  0  0  0  0
 19 20  1  0  0  0  0
 20 21  1  0  0  0  0
 21 22  1  0  0  0  0
 22 23  1  0  0  0  0
 24 25  3  0  0  0  0
 23 24  1  0  0  0  0
 12 13  1  0  0  0  0
M  END
>  <NAME>
N-(11-cyanoundecyl)decanamide

>  <INCHIKEY>
AUWGLVUSYXWUHU-UHFFFAOYSA-N

>  <POLYMER>
Nylon 12 (21)

>  <RETENTION INDEX>
SemiStdNP=2955.5

>  <FORMULA>
C22H42N2O

>  <MW>
350

>  <EXACT MASS>
350.329714

>  <ID>
113

>  <NUM PEAKS>
73

>  <MASS SPECTRAL PEAKS>
21 8
24 13
27 40
29 127
30 408
39 52
41 339
42 82
43 492
44 254
45 28
53 13
54 57
55 434
56 113
57 279
58 122
59 32
60 44
67 73
69 204
70 23
71 227
72 146
73 380
79 32
81 83
82 62
83 579
84 78
85 122
86 360
87 216
93 6
95 79
96 239
97 999
98 97
100 294
101 113
105 18
110 210
111 86
114 161
115 46
124 39
128 151
129 23
138 39
142 125
155 220
156 174
170 78
172 46
180 26
184 25
185 53
195 53
197 215
198 419
199 60
212 285
213 16
223 30
226 75
251 336
252 62
254 39
265 36
266 68
293 38
307 37
310 105

$$$$
C18H35NO
                                 
No Structure
  0  0  0  0  0  0  0  0  0  0  0
>  <NAME>
C18H35NO

>  <POLYMER>
Nylon 12 (21)

>  <RETENTION INDEX>
SemiStdNP=2219.2

>  <FORMULA>
C18H35NO

>  <MW>
281

>  <EXACT MASS>
281.271864

>  <ID>
114

>  <NUM PEAKS>
60

>  <MASS SPECTRAL PEAKS>
15 60
27 122
29 176
30 752
39 138
41 741
42 122
43 756
44 528
53 49
54 115
55 999
56 270
57 590
58 169
60 270
67 184
69 360
70 78
71 157
72 259
73 633
81 131
82 112
83 221
84 134
85 143
86 562
87 405
95 100
97 36
98 239
99 128
100 562
101 202
112 154
113 108
114 343
115 87
126 139
127 98
128 258
140 105
141 53
142 144
154 124
156 271
157 145
168 121
170 287
182 84
184 143
196 64
210 143
212 60
224 131
238 130
240 311
241 52
252 65

$$$$
N-(11-CYANOUNDECYL)ACETAMIDE
  ACD/LABS04112414053D
CAS rn = 2709810513, Library ID = 115
 17 16  0  0  0  0  0  0  0  0  1 V2000
    5.4204   -3.8299    0.0000 C   0  0  0  0  0  0  0  0  0  0  0  0
    4.2780   -4.4908    0.0000 C   0  0  0  0  0  0  0  0  0  0  0  0
    5.4187   -2.4999    0.0000 O   0  0  0  0  0  0  0  0  0  0  0  0
    6.5725   -4.4944    0.0000 N   0  0  0  0  0  0  0  0  0  0  0  0
    7.7241   -3.8299    0.0000 C   0  0  0  0  0  0  0  0  0  0  0  0
    8.8762   -4.4944    0.0000 C   0  0  0  0  0  0  0  0  0  0  0  0
   10.0278   -3.8299    0.0000 C   0  0  0  0  0  0  0  0  0  0  0  0
   11.1799   -4.4944    0.0000 C   0  0  0  0  0  0  0  0  0  0  0  0
   12.3314   -3.8299    0.0000 C   0  0  0  0  0  0  0  0  0  0  0  0
   13.4652   -4.4944    0.0000 C   0  0  0  0  0  0  0  0  0  0  0  0
   14.6167   -3.8299    0.0000 C   0  0  0  0  0  0  0  0  0  0  0  0
   15.7688   -4.4852    0.0000 C   0  0  0  0  0  0  0  0  0  0  0  0
   16.9204   -3.8299    0.0000 C   0  0  0  0  0  0  0  0  0  0  0  0
   18.0725   -4.4852    0.0000 C   0  0  0  0  0  0  0  0  0  0  0  0
   19.2240   -3.8299    0.0000 C   0  0  0  0  0  0  0  0  0  0  0  0
   20.3761   -4.4852    0.0000 C   0  0  0  0  0  0  0  0  0  0  0  0
   21.5282   -5.1497    0.0000 N   0  0  0  0  0  0  0  0  0  0  0  0
  1  2  1  0  0  0  0
  1  3  2  0  0  0  0
  1  4  1  0  0  0  0
  5  6  1  0  0  0  0
  6  7  1  0  0  0  0
  7  8  1  0  0  0  0
  8  9  1  0  0  0  0
  9 10  1  0  0  0  0
 10 11  1  0  0  0  0
 11 12  1  0  0  0  0
 12 13  1  0  0  0  0
 13 14  1  0  0  0  0
 14 15  1  0  0  0  0
 16 17  3  0  0  0  0
 15 16  1  0  0  0  0
  4  5  1  0  0  0  0
M  END
>  <NAME>
N-(11-Cyanoundecyl)acetamide

>  <INCHIKEY>
XIYOYVRKDFQZLQ-UHFFFAOYSA-N

>  <POLYMER>
Nylon 12 (21)

>  <RETENTION INDEX>
SemiStdNP=2179.8

>  <FORMULA>
C14H26N2O

>  <MW>
238

>  <EXACT MASS>
238.204514

>  <CASNO>
2709810513

>  <ID>
115

>  <NUM PEAKS>
48

>  <MASS SPECTRAL PEAKS>
27 26
29 58
30 999
31 29
39 38
41 215
42 53
43 482
44 208
45 48
52 9
53 17
54 45
55 186
56 35
57 13
58 93
59 5
60 198
67 27
69 78
70 9
72 715
73 521
74 20
79 17
81 19
82 37
83 128
86 307
87 113
95 8
96 67
97 261
98 9
100 337
101 53
110 73
111 15
114 132
115 8
122 13
128 51
142 49
156 91
170 14
195 45
198 101

$$$$
AZACYCLOTRIDECAN-2-ONE
  ACD/LABS04112414002D
CAS rn = 947046, Library ID = 116
 14 14  0  0  0  0  0  0  0  0  1 V2000
    9.6737   -7.1691    0.0000 C   0  0  0  0  0  0  0  0  0  0  0  0
   10.8110   -7.8114    0.0000 C   0  0  0  0  0  0  0  0  0  0  0  0
    9.6737   -5.8549    0.0000 C   0  0  0  0  0  0  0  0  0  0  0  0
   11.2059   -9.1255    0.0000 C   0  0  0  0  0  0  0  0  0  0  0  0
   10.8110   -5.1890    0.0000 C   0  0  0  0  0  0  0  0  0  0  0  0
   12.6732   -9.1255    0.0000 C   0  0  0  0  0  0  0  0  0  0  0  0
   13.0680   -7.8114    0.0000 C   0  0  0  0  0  0  0  0  0  0  0  0
   14.2054   -7.1691    0.0000 C   0  0  0  0  0  0  0  0  0  0  0  0
   14.2054   -5.8549    0.0000 C   0  0  0  0  0  0  0  0  0  0  0  0
   13.0680   -5.1890    0.0000 C   0  0  0  0  0  0  0  0  0  0  0  0
   13.0680   -3.8985    0.0000 C   0  0  0  0  0  0  0  0  0  0  0  0
   11.9307   -3.2326    0.0000 C   0  0  0  0  0  0  0  0  0  0  0  0
   10.8110   -3.8985    0.0000 N   0  0  0  0  0  0  0  0  0  0  0  0
   11.9271   -1.9026    0.0000 O   0  0  0  0  0  0  0  0  0  0  0  0
  1  2  1  0  0  0  0
  1  3  1  0  0  0  0
  2  4  1  0  0  0  0
  3  5  1  0  0  0  0
  4  6  1  0  0  0  0
  5 13  1  0  0  0  0
  6  7  1  0  0  0  0
  7  8  1  0  0  0  0
  8  9  1  0  0  0  0
  9 10  1  0  0  0  0
 10 11  1  0  0  0  0
 11 12  1  0  0  0  0
 12 14  2  0  0  0  0
 12 13  1  0  0  0  0
M  END
>  <NAME>
Azacyclotridecan-2-one

>  <INCHIKEY>
JHWNWJKBPDFINM-UHFFFAOYSA-N

>  <RETENTION INDEX>
SemiStdNP=1781.2

>  <POLYMER>
Nylon 12 (21)

>  <FORMULA>
C12H23NO

>  <MW>
197

>  <EXACT MASS>
197.177964

>  <CASNO>
947046

>  <ID>
116

>  <NUM PEAKS>
69

>  <MASS SPECTRAL PEAKS>
27 154
28 95
29 205
30 999
31 15
39 196
40 35
41 737
42 285
43 460
44 409
45 152
53 87
54 133
55 831
56 377
57 203
58 180
59 162
60 255
65 11
67 162
68 113
69 269
70 206
71 77
72 387
73 462
74 30
79 45
81 136
82 119
83 200
84 371
85 163
86 476
87 325
93 29
95 89
96 108
97 150
98 626
99 209
100 595
101 158
109 39
110 41
111 131
112 374
113 127
114 312
115 38
125 74
126 266
127 34
128 112
138 31
140 201
141 37
142 43
151 13
154 235
155 26
156 172
168 189
182 57
196 26
197 242
198 34

$$$$
1-AMINO-11-CYANOUNDECANE
  ACD/LABS04112413562D
CAS rn = 26437412, Library ID = 117
 14 13  0  0  0  0  0  0  0  0  1 V2000
    7.5318   -4.4922    0.0000 C   0  0  0  0  0  0  0  0  0  0  0  0
    8.6836   -3.8273    0.0000 C   0  0  0  0  0  0  0  0  0  0  0  0
    6.3800   -3.8272    0.0000 N   0  0  0  0  0  0  0  0  0  0  0  0
    9.8354   -4.4922    0.0000 C   0  0  0  0  0  0  0  0  0  0  0  0
   10.9872   -3.8273    0.0000 C   0  0  0  0  0  0  0  0  0  0  0  0
   12.1390   -4.4922    0.0000 C   0  0  0  0  0  0  0  0  0  0  0  0
   13.2908   -3.8273    0.0000 C   0  0  0  0  0  0  0  0  0  0  0  0
   14.4426   -4.4922    0.0000 C   0  0  0  0  0  0  0  0  0  0  0  0
   15.5945   -3.8273    0.0000 C   0  0  0  0  0  0  0  0  0  0  0  0
   16.7463   -4.4922    0.0000 C   0  0  0  0  0  0  0  0  0  0  0  0
   17.8981   -3.8272    0.0000 C   0  0  0  0  0  0  0  0  0  0  0  0
   19.0499   -4.4922    0.0000 C   0  0  0  0  0  0  0  0  0  0  0  0
   20.2017   -3.8273    0.0000 C   0  0  0  0  0  0  0  0  0  0  0  0
   21.3535   -3.1623    0.0000 N   0  0  0  0  0  0  0  0  0  0  0  0
  1  2  1  0  0  0  0
  1  3  1  0  0  0  0
  2  4  1  0  0  0  0
  4  5  1  0  0  0  0
  5  6  1  0  0  0  0
  6  7  1  0  0  0  0
  7  8  1  0  0  0  0
  8  9  1  0  0  0  0
  9 10  1  0  0  0  0
 10 11  1  0  0  0  0
 11 12  1  0  0  0  0
 12 13  1  0  0  0  0
 13 14  3  0  0  0  0
M  END
>  <NAME>
1-Amino-11-cyanoundecane

>  <INCHIKEY>
BVJKISUCBKDPOW-UHFFFAOYSA-N

>  <RETENTION INDEX>
SemiStdNP=1748.2

>  <POLYMER>
Nylon 12 (21)

>  <FORMULA>
C12H24N2

>  <MW>
196

>  <EXACT MASS>
196.193949

>  <CASNO>
26437412

>  <ID>
117

>  <NUM PEAKS>
55

>  <MASS SPECTRAL PEAKS>
18 22
27 23
28 24
29 33
30 999
31 18
38 1
39 29
40 4
41 116
42 32
43 46
44 48
45 115
53 16
54 28
55 105
56 36
57 10
58 4
59 100
60 2
64 2
67 17
68 3
69 42
70 2
72 62
73 12
79 5
81 9
82 12
83 39
85 2
86 83
87 10
93 1
94 2
95 6
96 11
97 18
100 31
108 3
109 1
110 5
112 2
114 17
122 6
128 9
136 4
142 7
153 2
156 61
157 6
195 7

$$$$
DODECENENITRILE
  ACD/LABS04112413302D
Library ID = 118
 13 12  0  0  0  0  0  0  0  0  1 V2000
   10.5522   -4.5721    0.0000 C   0  0  0  0  0  0  0  0  0  0  0  0
   11.7040   -5.2371    0.0000 C   0  0  0  0  0  0  0  0  0  0  0  0
    9.4004   -5.2371    0.0000 C   0  0  0  0  0  0  0  0  0  0  0  0
   12.8558   -4.5721    0.0000 C   0  0  0  0  0  0  0  0  0  0  0  0
   14.0076   -5.2371    0.0000 C   0  0  0  0  0  0  0  0  0  0  0  0
    8.2486   -4.5721    0.0000 C   0  0  0  0  0  0  0  0  0  0  0  0
   15.1594   -4.5721    0.0000 C   0  0  0  0  0  0  0  0  0  0  0  0
    7.0967   -5.2371    0.0000 C   0  0  0  0  0  0  0  0  0  0  0  0
   16.3112   -5.2371    0.0000 C   0  0  0  0  0  0  0  0  0  0  0  0
    5.9449   -4.5721    0.0000 C   0  0  0  0  0  0  0  0  0  0  0  0
   17.4631   -4.5721    0.0000 C   0  0  0  0  0  0  0  0  0  0  0  0
    4.7931   -5.2371    0.0000 C   0  0  0  0  0  0  0  0  0  0  0  0
   18.6149   -3.9071    0.0000 N   0  0  0  0  0  0  0  0  0  0  0  0
  1  2  1  0  0  0  0
  1  3  1  0  0  0  0
  2  4  1  0  0  0  0
  3  6  1  0  0  0  0
  4  5  1  0  0  0  0
  5  7  1  0  0  0  0
  6  8  1  0  0  0  0
  7  9  1  0  0  0  0
  8 10  1  0  0  0  0
  9 11  1  0  0  0  0
 10 12  2  0  0  0  0
 11 13  3  0  0  0  0
M  END
>  <NAME>
Dodecenenitrile

>  <INCHIKEY>
JCXSQWLYMCCGSN-UHFFFAOYSA-N

>  <POLYMER>
Nylon 12 (21)

>  <RETENTION INDEX>
SemiStdNP=1578.1

>  <FORMULA>
C12H21N

>  <MW>
179

>  <EXACT MASS>
179.167399

>  <ID>
118

>  <COMMENT>
double bond position unsure

>  <NUM PEAKS>
59

>  <MASS SPECTRAL PEAKS>
22 23
24 23
27 234
28 171
29 281
39 334
40 54
41 999
42 303
43 265
52 22
53 187
54 597
55 746
56 379
57 187
65 42
66 32
67 293
68 244
69 596
70 152
77 49
79 121
80 205
81 308
82 576
83 671
84 30
91 83
93 75
94 324
95 288
96 809
97 567
98 29
105 16
107 26
108 429
109 126
110 629
111 111
119 20
120 26
121 63
122 542
123 100
124 291
125 20
133 22
134 42
136 507
137 51
138 142
150 347
151 39
164 102
174 19
178 74

$$$$
DODECANENITRILE
  ACD/LABS04112413152D
CAS rn = 2437254, Library ID = 119
 13 12  0  0  0  0  0  0  0  0  1 V2000
   10.5522   -4.5721    0.0000 C   0  0  0  0  0  0  0  0  0  0  0  0
   11.7040   -5.2371    0.0000 C   0  0  0  0  0  0  0  0  0  0  0  0
    9.4004   -5.2371    0.0000 C   0  0  0  0  0  0  0  0  0  0  0  0
   12.8558   -4.5721    0.0000 C   0  0  0  0  0  0  0  0  0  0  0  0
   14.0076   -5.2371    0.0000 C   0  0  0  0  0  0  0  0  0  0  0  0
    8.2486   -4.5721    0.0000 C   0  0  0  0  0  0  0  0  0  0  0  0
   15.1594   -4.5721    0.0000 C   0  0  0  0  0  0  0  0  0  0  0  0
    7.0967   -5.2371    0.0000 C   0  0  0  0  0  0  0  0  0  0  0  0
   16.3112   -5.2371    0.0000 C   0  0  0  0  0  0  0  0  0  0  0  0
    5.9449   -4.5721    0.0000 C   0  0  0  0  0  0  0  0  0  0  0  0
   17.4631   -4.5721    0.0000 C   0  0  0  0  0  0  0  0  0  0  0  0
    4.7931   -5.2371    0.0000 C   0  0  0  0  0  0  0  0  0  0  0  0
   18.6149   -3.9071    0.0000 N   0  0  0  0  0  0  0  0  0  0  0  0
  1  2  1  0  0  0  0
  1  3  1  0  0  0  0
  2  4  1  0  0  0  0
  3  6  1  0  0  0  0
  4  5  1  0  0  0  0
  5  7  1  0  0  0  0
  6  8  1  0  0  0  0
  7  9  1  0  0  0  0
  8 10  1  0  0  0  0
  9 11  1  0  0  0  0
 10 12  1  0  0  0  0
 11 13  3  0  0  0  0
M  END
>  <NAME>
Dodecanenitrile

>  <INCHIKEY>
VXCUURYYWGCLIH-UHFFFAOYSA-N

>  <RETENTION INDEX>
SemiStdNP=1484.4

>  <POLYMER>
Nylon 12 (21)

>  <FORMULA>
C12H23N

>  <MW>
181

>  <EXACT MASS>
181.18305

>  <CASNO>
2437254

>  <ID>
119

>  <NUM PEAKS>
32

>  <MASS SPECTRAL PEAKS>
23 48
27 239
29 472
39 177
41 950
42 188
43 999
53 88
54 508
55 567
56 351
57 774
67 79
68 119
69 675
70 301
71 129
79 63
81 81
82 804
83 556
84 111
93 36
96 950
97 870
98 91
110 788
111 251
124 519
135 48
138 392
152 141

$$$$
DODECENENITRILE
  ACD/LABS04112413302D
Library ID = 120
 13 12  0  0  0  0  0  0  0  0  1 V2000
   10.5522   -4.5721    0.0000 C   0  0  0  0  0  0  0  0  0  0  0  0
   11.7040   -5.2371    0.0000 C   0  0  0  0  0  0  0  0  0  0  0  0
    9.4004   -5.2371    0.0000 C   0  0  0  0  0  0  0  0  0  0  0  0
   12.8558   -4.5721    0.0000 C   0  0  0  0  0  0  0  0  0  0  0  0
   14.0076   -5.2371    0.0000 C   0  0  0  0  0  0  0  0  0  0  0  0
    8.2486   -4.5721    0.0000 C   0  0  0  0  0  0  0  0  0  0  0  0
   15.1594   -4.5721    0.0000 C   0  0  0  0  0  0  0  0  0  0  0  0
    7.0967   -5.2371    0.0000 C   0  0  0  0  0  0  0  0  0  0  0  0
   16.3112   -5.2371    0.0000 C   0  0  0  0  0  0  0  0  0  0  0  0
    5.9449   -4.5721    0.0000 C   0  0  0  0  0  0  0  0  0  0  0  0
   17.4631   -4.5721    0.0000 C   0  0  0  0  0  0  0  0  0  0  0  0
    4.7931   -5.2371    0.0000 C   0  0  0  0  0  0  0  0  0  0  0  0
   18.6149   -3.9071    0.0000 N   0  0  0  0  0  0  0  0  0  0  0  0
  1  2  2  0  0  0  0
  1  3  1  0  0  0  0
  2  4  1  0  0  0  0
  3  6  1  0  0  0  0
  4  5  1  0  0  0  0
  5  7  1  0  0  0  0
  6  8  1  0  0  0  0
  7  9  1  0  0  0  0
  8 10  1  0  0  0  0
  9 11  1  0  0  0  0
 10 12  1  0  0  0  0
 11 13  3  0  0  0  0
M  END
>  <NAME>
Dodecenenitrile

>  <INCHIKEY>
PMPBRPBUCZGPEF-VOTSOKGWSA-N

>  <POLYMER>
Nylon 12 (21)

>  <RETENTION INDEX>
SemiStdNP=1478.3

>  <FORMULA>
C12H21N

>  <MW>
179

>  <EXACT MASS>
179.167399

>  <ID>
120

>  <COMMENT>
double bond position unsure

>  <NUM PEAKS>
60

>  <MASS SPECTRAL PEAKS>
26 15
27 130
28 34
29 200
30 19
39 222
40 26
41 807
42 228
43 164
44 14
51 7
52 8
53 100
54 271
55 999
56 287
57 84
65 16
66 10
67 150
68 110
69 513
70 125
71 9
77 16
79 108
80 163
81 183
82 266
83 244
84 24
91 32
93 72
94 276
95 154
96 229
97 135
98 20
105 12
107 20
108 246
109 79
110 93
111 11
119 6
120 9
122 558
123 100
124 61
134 17
136 438
137 63
138 42
148 15
150 186
151 24
156 10
164 24
178 22

$$$$
10-UNDECENENITRILE
  ACD/LABS04112413062D
CAS rn = 53179047, Library ID = 121
 12 11  0  0  0  0  0  0  0  0  1 V2000
   16.5045   -6.2084    0.0000 C   0  0  0  0  0  0  0  0  0  0  0  0
   15.3527   -6.8734    0.0000 C   0  0  0  0  0  0  0  0  0  0  0  0
   17.6563   -5.5434    0.0000 N   0  0  0  0  0  0  0  0  0  0  0  0
   14.2009   -6.2084    0.0000 C   0  0  0  0  0  0  0  0  0  0  0  0
   13.0491   -6.8734    0.0000 C   0  0  0  0  0  0  0  0  0  0  0  0
   11.8973   -6.2084    0.0000 C   0  0  0  0  0  0  0  0  0  0  0  0
   10.7454   -6.8734    0.0000 C   0  0  0  0  0  0  0  0  0  0  0  0
    9.5936   -6.2084    0.0000 C   0  0  0  0  0  0  0  0  0  0  0  0
    8.4418   -6.8734    0.0000 C   0  0  0  0  0  0  0  0  0  0  0  0
    7.2900   -6.2084    0.0000 C   0  0  0  0  0  0  0  0  0  0  0  0
    6.1382   -6.8734    0.0000 C   0  0  0  0  0  0  0  0  0  0  0  0
    4.9864   -6.2084    0.0000 C   0  0  0  0  0  0  0  0  0  0  0  0
  1  2  1  0  0  0  0
  1  3  3  0  0  0  0
  2  4  1  0  0  0  0
  4  5  1  0  0  0  0
  5  6  1  0  0  0  0
  6  7  1  0  0  0  0
  7  8  1  0  0  0  0
  8  9  1  0  0  0  0
  9 10  1  0  0  0  0
 10 11  1  0  0  0  0
 11 12  2  0  0  0  0
M  END
>  <NAME>
10-Undecenenitrile

>  <INCHIKEY>
NRZJSHMHHFWKBV-UHFFFAOYSA-N

>  <RETENTION INDEX>
SemiStdNP=1375.9

>  <POLYMER>
Nylon 12 (21)

>  <FORMULA>
C11H19N

>  <MW>
165

>  <EXACT MASS>
165.15175

>  <CASNO>
53179047

>  <ID>
121

>  <NUM PEAKS>
43

>  <MASS SPECTRAL PEAKS>
27 161
28 50
29 212
30 58
39 260
40 40
41 765
42 210
43 141
51 10
53 107
54 271
55 999
56 234
57 37
67 157
68 93
69 423
70 86
77 19
79 112
80 189
81 185
82 265
83 240
91 43
93 20
94 319
95 93
96 165
97 60
98 10
108 186
109 63
110 63
122 522
123 69
124 49
134 12
136 388
137 42
150 47
164 7

$$$$
1-DECANENITRILE
  ACD/LABS04112413022D
CAS rn = 1975786, Library ID = 122
 11 10  0  0  0  0  0  0  0  0  1 V2000
   10.6109   -5.2404    0.0000 C   0  0  0  0  0  0  0  0  0  0  0  0
   11.7627   -4.5754    0.0000 C   0  0  0  0  0  0  0  0  0  0  0  0
    9.4591   -4.5754    0.0000 C   0  0  0  0  0  0  0  0  0  0  0  0
   12.9145   -5.2404    0.0000 C   0  0  0  0  0  0  0  0  0  0  0  0
   14.0663   -4.5754    0.0000 C   0  0  0  0  0  0  0  0  0  0  0  0
    8.3073   -5.2404    0.0000 C   0  0  0  0  0  0  0  0  0  0  0  0
   15.2182   -5.2404    0.0000 C   0  0  0  0  0  0  0  0  0  0  0  0
    7.1555   -4.5754    0.0000 C   0  0  0  0  0  0  0  0  0  0  0  0
   16.3700   -4.5754    0.0000 C   0  0  0  0  0  0  0  0  0  0  0  0
    6.0036   -5.2404    0.0000 C   0  0  0  0  0  0  0  0  0  0  0  0
   17.5218   -3.9104    0.0000 N   0  0  0  0  0  0  0  0  0  0  0  0
  1  2  1  0  0  0  0
  1  3  1  0  0  0  0
  2  4  1  0  0  0  0
  3  6  1  0  0  0  0
  4  5  1  0  0  0  0
  5  7  1  0  0  0  0
  6  8  1  0  0  0  0
  7  9  1  0  0  0  0
  8 10  1  0  0  0  0
  9 11  3  0  0  0  0
M  END
>  <NAME>
1-Decanenitrile

>  <INCHIKEY>
HBZDPWBWBJMYRY-UHFFFAOYSA-N

>  <RETENTION INDEX>
SemiStdNP=1280.4

>  <POLYMER>
Nylon 12 (21)

>  <FORMULA>
C10H19N

>  <MW>
153

>  <EXACT MASS>
153.15175

>  <CASNO>
1975786

>  <ID>
122

>  <NUM PEAKS>
31

>  <MASS SPECTRAL PEAKS>
24 23
27 253
29 436
39 240
40 51
41 999
42 157
43 842
53 123
54 674
55 541
56 211
57 522
60 38
68 105
69 751
70 129
71 28
76 22
79 64
81 71
82 910
83 533
93 23
96 870
97 545
98 17
105 25
110 651
111 86
124 257

$$$$
1,9-DECADIENE
  -NISTMS-12099911132D 1   1.0         0.0          
CAS rn = 1647161, Library ID = 123
 10  9  0  0  0  0  0  0  0  0  0
   -3.2352    0.4095    0.0000 C   0  0  0     0  0  0  0  0  0
   -2.5390    0.7781    0.0000 C   0  0  0     0  0  0  0  0  0
    3.2761    0.7781    0.0000 C   0  0  0     0  0  0  0  0  0
    2.5390    0.4095    0.0000 C   0  0  0     0  0  0  0  0  0
   -1.8019    0.4095    0.0000 C   0  0  0     0  0  0  0  0  0
   -1.0647    0.7781    0.0000 C   0  0  0     0  0  0  0  0  0
   -0.3276    0.4095    0.0000 C   0  0  0     0  0  0  0  0  0
    0.3686    0.7781    0.0000 C   0  0  0     0  0  0  0  0  0
    1.1057    0.4095    0.0000 C   0  0  0     0  0  0  0  0  0
    1.8019    0.7781    0.0000 C   0  0  0     0  0  0  0  0  0
  1  2  2  0  0  0  0
  2  5  1  0  0  0  0
  3  4  2  0  0  0  0
  4 10  1  0  0  0  0
  5  6  1  0  0  0  0
  6  7  1  0  0  0  0
  7  8  1  0  0  0  0
  8  9  1  0  0  0  0
  9 10  1  0  0  0  0
>  <NAME>
1,9-Decadiene

>  <INCHIKEY>
NLDGJRWPPOSWLC-UHFFFAOYSA-N

>  <RETENTION INDEX>
SemiStdNP=979.9

>  <POLYMER>
Nylon 12 (21)

>  <FORMULA>
C10H18

>  <MW>
138

>  <EXACT MASS>
138.140851

>  <CASNO>
1647161

>  <ID>
123

>  <NUM PEAKS>
25

>  <MASS SPECTRAL PEAKS>
24 18
27 102
29 127
39 285
41 633
42 27
43 104
51 34
53 101
54 698
55 999
66 49
67 553
68 324
69 118
79 36
81 481
82 217
83 21
94 63
95 157
96 116
104 25
109 47
110 69

$$$$
1,8,15-TRIOXACYCLOHENICOSANE-2,9,16-TRIONE
  ACD/LABS04122412462D
CAS rn = 34833186, Library ID = 124
 24 24  0  0  0  0  0  0  0  0  1 V2000
   14.4536   -4.4237    0.0000 O   0  0  0  0  0  0  0  0  0  0  0  0
   15.1186   -3.2922    0.0000 C   0  0  0  0  0  0  0  0  0  0  0  0
   16.4486   -3.2922    0.0000 C   0  0  0  0  0  0  0  0  0  0  0  0
   17.1136   -4.4440    0.0000 C   0  0  0  0  0  0  0  0  0  0  0  0
   18.3552   -4.9207    0.0000 C   0  0  0  0  0  0  0  0  0  0  0  0
   18.3552   -6.2507    0.0000 C   0  0  0  0  0  0  0  0  0  0  0  0
   17.1136   -6.7273    0.0000 C   0  0  0  0  0  0  0  0  0  0  0  0
   16.4486   -7.8791    0.0000 O   0  0  0  0  0  0  0  0  0  0  0  0
   17.1136   -9.0309    0.0000 C   0  0  0  0  0  0  0  0  0  0  0  0
   16.4486  -10.1827    0.0000 C   0  0  0  0  0  0  0  0  0  0  0  0
   15.1186  -10.1827    0.0000 C   0  0  0  0  0  0  0  0  0  0  0  0
   14.4536  -11.3345    0.0000 C   0  0  0  0  0  0  0  0  0  0  0  0
   13.1236  -11.3345    0.0000 C   0  0  0  0  0  0  0  0  0  0  0  0
   12.4586  -10.1827    0.0000 C   0  0  0  0  0  0  0  0  0  0  0  0
   11.1286  -10.1827    0.0000 O   0  0  0  0  0  0  0  0  0  0  0  0
   10.4636   -9.0309    0.0000 C   0  0  0  0  0  0  0  0  0  0  0  0
   11.1286   -7.8791    0.0000 C   0  0  0  0  0  0  0  0  0  0  0  0
   10.4636   -6.7273    0.0000 C   0  0  0  0  0  0  0  0  0  0  0  0
   11.1286   -5.5755    0.0000 C   0  0  0  0  0  0  0  0  0  0  0  0
   12.4586   -5.5755    0.0000 C   0  0  0  0  0  0  0  0  0  0  0  0
   13.1236   -4.4237    0.0000 C   0  0  0  0  0  0  0  0  0  0  0  0
   14.4536   -2.1404    0.0000 O   0  0  0  0  0  0  0  0  0  0  0  0
   18.4436   -9.0309    0.0000 O   0  0  0  0  0  0  0  0  0  0  0  0
    9.1336   -9.0309    0.0000 O   0  0  0  0  0  0  0  0  0  0  0  0
  1  2  1  0  0  0  0
  2  3  1  0  0  0  0
  3  4  1  0  0  0  0
  4  5  1  0  0  0  0
  5  6  1  0  0  0  0
  6  7  1  0  0  0  0
  7  8  1  0  0  0  0
  8  9  1  0  0  0  0
  9 10  1  0  0  0  0
 10 11  1  0  0  0  0
 11 12  1  0  0  0  0
 12 13  1  0  0  0  0
 13 14  1  0  0  0  0
 14 15  1  0  0  0  0
 15 16  1  0  0  0  0
 16 17  1  0  0  0  0
 17 18  1  0  0  0  0
 18 19  1  0  0  0  0
 19 20  1  0  0  0  0
 20 21  1  0  0  0  0
  1 21  1  0  0  0  0
  2 22  2  0  0  0  0
  9 23  2  0  0  0  0
 16 24  2  0  0  0  0
M  END
>  <NAME>
1,8,15-Trioxacyclohenicosane-2,9,16-trione

>  <INCHIKEY>
FMINTSMOGAIGFD-UHFFFAOYSA-N

>  <POLYMER>
PCL (7)

>  <RETENTION INDEX>
SemiStdNP=2498.6

>  <FORMULA>
C18H30O6

>  <MW>
342

>  <EXACT MASS>
342.204239

>  <CASNO>
34833186

>  <ID>
124

>  <COMMENT>
id unsure

>  <NUM PEAKS>
65

>  <MASS SPECTRAL PEAKS>
23 1
26 1
27 20
29 33
31 4
39 37
40 7
41 214
42 60
43 47
45 26
53 16
54 65
55 297
56 28
57 17
58 3
59 8
60 47
65 6
66 2
67 46
68 198
69 510
70 45
71 27
72 2
73 137
74 3
75 1
79 8
81 20
83 8
84 17
85 11
86 7
87 4
95 7
96 205
97 542
98 50
99 16
101 4
112 5
113 28
114 102
115 999
116 66
117 6
125 1
126 4
127 1
128 19
129 1
133 7
138 1
141 3
149 3
156 8
169 6
210 11
211 4
229 3
251 1
324 3

$$$$
6-(5-HEXENOYLOXY)HEXANOIC ACID
  ACD/LABS04102414312D
CAS rn = 2098694858, Library ID = 125
 16 15  0  0  0  0  0  0  0  0  1 V2000
    9.2321   -5.2158    0.0000 C   0  0  0  0  0  0  0  0  0  0  0  0
   10.3839   -5.8808    0.0000 C   0  0  0  0  0  0  0  0  0  0  0  0
   11.5357   -5.2158    0.0000 C   0  0  0  0  0  0  0  0  0  0  0  0
   12.6876   -5.8808    0.0000 C   0  0  0  0  0  0  0  0  0  0  0  0
   13.8394   -5.2158    0.0000 C   0  0  0  0  0  0  0  0  0  0  0  0
   14.9912   -5.8808    0.0000 C   0  0  0  0  0  0  0  0  0  0  0  0
    9.2321   -3.8858    0.0000 O   0  0  0  0  0  0  0  0  0  0  0  0
    8.0803   -5.8808    0.0000 O   0  0  0  0  0  0  0  0  0  0  0  0
   16.1430   -5.2158    0.0000 O   0  0  0  0  0  0  0  0  0  0  0  0
   17.2948   -5.8808    0.0000 C   0  0  0  0  0  0  0  0  0  0  0  0
   18.4466   -5.2158    0.0000 C   0  0  0  0  0  0  0  0  0  0  0  0
   19.5984   -5.8808    0.0000 C   0  0  0  0  0  0  0  0  0  0  0  0
   20.7502   -5.2158    0.0000 C   0  0  0  0  0  0  0  0  0  0  0  0
   21.9021   -5.8808    0.0000 C   0  0  0  0  0  0  0  0  0  0  0  0
   23.0539   -5.2158    0.0000 C   0  0  0  0  0  0  0  0  0  0  0  0
   17.2948   -7.2108    0.0000 O   0  0  0  0  0  0  0  0  0  0  0  0
  1  2  1  0  0  0  0
  2  3  1  0  0  0  0
  3  4  1  0  0  0  0
  4  5  1  0  0  0  0
  5  6  1  0  0  0  0
  1  7  2  0  0  0  0
  1  8  1  0  0  0  0
 10 11  1  0  0  0  0
 11 12  1  0  0  0  0
 12 13  1  0  0  0  0
 13 14  1  0  0  0  0
 14 15  2  0  0  0  0
 10 16  2  0  0  0  0
  9 10  1  0  0  0  0
  6  9  1  0  0  0  0
M  END
>  <NAME>
6-(5-hexenoyloxy)hexanoic acid

>  <INCHIKEY>
MZDOLGFDPZBRQM-UHFFFAOYSA-N

>  <POLYMER>
PCL (7)

>  <RETENTION INDEX>
SemiStdNP=1749.4

>  <FORMULA>
C12H20O4

>  <MW>
228

>  <EXACT MASS>
228.136159

>  <CASNO>
2098694858

>  <ID>
125

>  <NUM PEAKS>
75

>  <MASS SPECTRAL PEAKS>
14 2
15 2
27 72
28 14
29 82
30 4
31 19
38 7
39 138
40 26
41 504
42 127
43 97
44 9
45 74
50 3
51 7
52 6
53 44
54 163
55 661
56 72
57 37
58 10
59 21
60 145
61 5
65 12
66 2
67 105
68 467
69 999
70 84
71 51
72 5
73 316
74 15
77 1
79 17
80 1
81 41
83 15
84 47
85 34
86 28
87 7
90 1
95 14
96 384
97 863
98 72
99 31
100 3
101 4
108 1
111 4
112 7
113 58
114 173
115 722
116 50
117 3
125 1
126 18
128 53
129 4
131 5
133 15
141 5
142 1
144 3
151 1
156 11
174 1
210 2

$$$$
PENTYL 4-PENTENOATE
  ACD/LABS04102411382D
CAS rn = 1865109994, Library ID = 126
 12 11  0  0  0  0  0  0  0  0  1 V2000
    7.3277   -6.3579    0.0000 C   0  0  0  0  0  0  0  0  0  0  0  0
    8.4795   -5.6929    0.0000 C   0  0  0  0  0  0  0  0  0  0  0  0
    9.6313   -6.3579    0.0000 C   0  0  0  0  0  0  0  0  0  0  0  0
   10.7831   -5.6929    0.0000 C   0  0  0  0  0  0  0  0  0  0  0  0
   11.9349   -6.3579    0.0000 C   0  0  0  0  0  0  0  0  0  0  0  0
   13.0868   -5.6929    0.0000 O   0  0  0  0  0  0  0  0  0  0  0  0
   14.2386   -6.3579    0.0000 C   0  0  0  0  0  0  0  0  0  0  0  0
   15.3904   -5.6929    0.0000 C   0  0  0  0  0  0  0  0  0  0  0  0
   16.5422   -6.3579    0.0000 C   0  0  0  0  0  0  0  0  0  0  0  0
   17.6940   -5.6929    0.0000 C   0  0  0  0  0  0  0  0  0  0  0  0
   18.8458   -6.3579    0.0000 C   0  0  0  0  0  0  0  0  0  0  0  0
   11.9349   -7.6879    0.0000 O   0  0  0  0  0  0  0  0  0  0  0  0
  2  1  2  0  0  0  0
  3  2  1  0  0  0  0
  4  3  1  0  0  0  0
  5  4  1  0  0  0  0
  6  5  1  0  0  0  0
  7  6  1  0  0  0  0
  8  7  1  0  0  0  0
  9  8  1  0  0  0  0
 10  9  1  0  0  0  0
 11 10  1  0  0  0  0
  5 12  2  0  0  0  0
M  END
>  <NAME>
Pentyl 4-pentenoate

>  <INCHIKEY>
CIZMYXNXGYVKQG-UHFFFAOYSA-N

>  <POLYMER>
PCL (7)

>  <RETENTION INDEX>
SemiStdNP=1273.3

>  <FORMULA>
C10H18O2

>  <MW>
170

>  <EXACT MASS>
170.13068

>  <CASNO>
1865109994

>  <ID>
126

>  <NUM PEAKS>
29

>  <MASS SPECTRAL PEAKS>
27 151
29 234
31 16
39 239
40 63
41 707
42 235
43 999
49 23
53 66
54 183
55 778
57 35
60 368
61 62
66 19
67 87
68 577
69 620
70 333
71 263
73 241
81 18
96 325
97 653
98 47
99 54
114 549
115 83

$$$$
6-HYDROXYHEXANOIC ACID
  ACD/LABS04102411122D
CAS rn = 1191259, Library ID = 127
  9  8  0  0  0  0  0  0  0  0  1 V2000
    9.3131   -6.1826    0.0000 C   0  0  0  0  0  0  0  0  0  0  0  0
   10.4649   -6.8476    0.0000 C   0  0  0  0  0  0  0  0  0  0  0  0
    8.1612   -6.8476    0.0000 O   0  0  0  0  0  0  0  0  0  0  0  0
    9.3131   -4.8526    0.0000 O   0  0  0  0  0  0  0  0  0  0  0  0
   11.6167   -6.1826    0.0000 C   0  0  0  0  0  0  0  0  0  0  0  0
   12.7685   -6.8476    0.0000 C   0  0  0  0  0  0  0  0  0  0  0  0
   13.9203   -6.1826    0.0000 C   0  0  0  0  0  0  0  0  0  0  0  0
   15.0721   -6.8476    0.0000 C   0  0  0  0  0  0  0  0  0  0  0  0
   16.2239   -6.1826    0.0000 O   0  0  0  0  0  0  0  0  0  0  0  0
  1  2  1  0  0  0  0
  1  3  1  0  0  0  0
  1  4  2  0  0  0  0
  2  5  1  0  0  0  0
  5  6  1  0  0  0  0
  6  7  1  0  0  0  0
  7  8  1  0  0  0  0
  8  9  1  0  0  0  0
M  END
>  <NAME>
6-Hydroxyhexanoic acid

>  <INCHIKEY>
IWHLYPDWHHPVAA-UHFFFAOYSA-N

>  <RETENTION INDEX>
SemiStdNP=1255.9

>  <POLYMER>
PCL (7)

>  <FORMULA>
C6H12O3

>  <MW>
132

>  <EXACT MASS>
132.078644

>  <CASNO>
1191259

>  <ID>
127

>  <NUM PEAKS>
40

>  <MASS SPECTRAL PEAKS>
26 21
27 152
28 100
29 208
31 289
39 138
41 307
42 223
43 185
44 58
45 169
46 9
53 44
54 44
55 844
56 97
57 103
58 51
59 61
60 452
64 10
67 62
68 217
69 86
70 159
71 25
73 999
74 76
83 48
84 43
85 10
86 108
87 16
96 35
99 41
101 34
102 150
108 7
114 13
115 6

$$$$
.EPSILON.-CAPROLACTONE
  -NISTMS-12099911132D 1   1.0         0.0          
CAS rn = 502443, Library ID = 128
  8  8  0  0  0  0  0  0  0  0  0
   -0.6887    0.7697    0.0000 O   0  0  0     0  2  0  0  0  0
    0.0405    1.0938    0.0000 C   0  0  0     0  0  0  0  0  0
   -0.9318   -0.0405    0.0000 C   0  0  0     0  0  0  0  0  0
    0.7697    0.7292    0.0000 C   0  0  0     0  0  0  0  0  0
    0.0405    1.8635    0.0000 O   0  0  0     0  2  0  0  0  0
   -0.4051   -0.6887    0.0000 C   0  0  0     0  0  0  0  0  0
    0.9318   -0.0405    0.0000 C   0  0  0     0  0  0  0  0  0
    0.4051   -0.6887    0.0000 C   0  0  0     0  0  0  0  0  0
  1  2  1  0  0  0  0
  1  3  1  0  0  0  0
  2  4  1  0  0  0  0
  2  5  2  0  0  0  0
  3  6  1  0  0  0  0
  4  7  1  0  0  0  0
  6  8  1  0  0  0  0
  7  8  1  0  0  0  0
>  <NAME>
.epsilon.-Caprolactone

>  <INCHIKEY>
PAPBSGBWRJIAAV-UHFFFAOYSA-N

>  <RETENTION INDEX>
SemiStdNP=1143.4

>  <POLYMER>
PCL (7)

>  <FORMULA>
C6H10O2

>  <MW>
114

>  <EXACT MASS>
114.0680795

>  <CASNO>
502443

>  <ID>
128

>  <NUM PEAKS>
46

>  <MASS SPECTRAL PEAKS>
14 2
15 10
26 25
27 126
28 131
29 101
30 6
31 11
37 5
38 16
39 151
40 46
41 348
42 681
43 56
44 15
45 5
50 9
51 10
52 3
53 23
54 12
55 999
56 319
57 42
58 3
60 1
63 1
65 3
66 2
67 34
68 18
69 11
70 120
71 7
77 1
82 1
83 21
84 295
85 23
86 3
95 1
106 1
113 1
114 64
115 6

$$$$
unknown
                                 
No Structure
  0  0  0  0  0  0  0  0  0  0  0
>  <NAME>
unknown

>  <RETENTION INDEX>
SemiStdNP=764.9

>  <POLYMER>
PCL (7)

>  <FORMULA>
C6H8O

>  <MW>
96

>  <EXACT MASS>
96.0575147

>  <ID>
129

>  <NUM PEAKS>
23

>  <MASS SPECTRAL PEAKS>
14 12
24 4
25 4
26 21
27 228
28 7
30 2
37 6
38 19
39 123
40 10
41 83
51 6
53 8
55 999
56 34
66 3
67 9
68 94
69 9
91 13
92 4
95 3

$$$$
5-HEXENOIC ACID
  ACD/LABS04102410523D
CAS rn = 1577226, Library ID = 130
  8  7  0  0  0  0  0  0  0  0  1 V2000
    6.8925   -7.0226    0.0000 C   0  0  0  0  0  0  0  0  0  0  0  0
    8.0361   -6.3591    0.0000 C   0  0  0  0  0  0  0  0  0  0  0  0
    5.7411   -6.3568    0.0000 C   0  0  0  0  0  0  0  0  0  0  0  0
    9.1784   -7.0248    0.0000 C   0  0  0  0  0  0  0  0  0  0  0  0
    4.5977   -7.0164    0.0000 O   0  0  0  0  0  0  0  0  0  0  0  0
    5.7411   -5.0267    0.0000 O   0  0  0  0  0  0  0  0  0  0  0  0
   10.3311   -6.3613    0.0000 C   0  0  0  0  0  0  0  0  0  0  0  0
   11.4827   -7.0271    0.0000 C   0  0  0  0  0  0  0  0  0  0  0  0
  1  2  1  0  0  0  0
  1  3  1  0  0  0  0
  2  4  1  0  0  0  0
  3  5  1  0  0  0  0
  3  6  2  0  0  0  0
  4  7  1  0  0  0  0
  7  8  2  0  0  0  0
M  END
>  <NAME>
5-Hexenoic acid

>  <INCHIKEY>
XUDOZULIAWNMIU-UHFFFAOYSA-N

>  <RETENTION INDEX>
SemiStdNP=1013.3

>  <POLYMER>
PCL (7)

>  <FORMULA>
C6H10O2

>  <MW>
114

>  <EXACT MASS>
114.0680795

>  <CASNO>
1577226

>  <ID>
130

>  <NUM PEAKS>
43

>  <MASS SPECTRAL PEAKS>
21 6
26 31
27 168
28 66
29 121
31 21
37 8
38 29
39 398
40 75
41 486
42 239
43 74
44 24
45 159
50 17
51 29
53 96
54 223
55 855
56 61
57 54
58 28
59 17
60 999
61 25
63 4
65 18
67 97
68 427
69 155
71 27
72 7
73 131
81 27
84 3
85 7
86 7
96 140
97 17
99 71
100 3
114 27

$$$$
2-ETHYLHEXANE
  ACD/LABS04092414203D
CAS rn = 589811, Library ID = 131
  8  7  0  0  0  0  0  0  0  0  1 V2000
   13.6743  -18.5351    0.0000 C   0  0  0  0  0  0  0  0  0  0  0  0
   12.5283  -17.8603    0.0000 C   0  0  0  0  0  0  0  0  0  0  0  0
   14.8209  -17.8614    0.0000 C   0  0  0  0  0  0  0  0  0  0  0  0
   12.5283  -16.4719    0.0000 C   0  0  0  0  0  0  0  0  0  0  0  0
   11.3493  -18.5152    0.0000 C   0  0  0  0  0  0  0  0  0  0  0  0
   13.6744  -15.7970    0.0000 C   0  0  0  0  0  0  0  0  0  0  0  0
   14.8222  -16.4730    0.0000 C   0  0  0  0  0  0  0  0  0  0  0  0
   15.9689  -15.7992    0.0000 C   0  0  0  0  0  0  0  0  0  0  0  0
  1  2  1  0  0  0  0
  1  3  1  0  0  0  0
  2  4  1  0  0  0  0
  2  5  1  0  0  0  0
  3  7  1  0  0  0  0
  4  6  1  0  0  0  0
  7  8  1  0  0  0  0
M  END
>  <NAME>
2-Ethylhexane

>  <INCHIKEY>
LAIUFBWHERIJIH-UHFFFAOYSA-N

>  <RETENTION INDEX>
SemiStdNP=760.2

>  <POLYMER>
iso-PB (28)

>  <FORMULA>
C8H18

>  <MW>
114

>  <EXACT MASS>
114.1408505

>  <CASNO>
589811

>  <ID>
131

>  <NUM PEAKS>
28

>  <MASS SPECTRAL PEAKS>
27 112
29 213
31 9
39 85
40 22
41 387
42 60
43 999
44 41
53 22
55 104
56 384
57 788
58 38
63 4
64 3
69 40
71 31
74 3
84 262
85 585
86 35
89 4
90 3
95 4
99 4
108 2
114 7

$$$$
2-ETHYL-1-HEXENE
  ACD/LABS04092414183D
CAS rn = 1632162, Library ID = 132
  8  7  0  0  0  0  0  0  0  0  1 V2000
   17.0352   -6.7483    0.0000 C   0  0  0  0  0  0  0  0  0  0  0  0
   15.8834   -7.4133    0.0000 C   0  0  0  0  0  0  0  0  0  0  0  0
   15.8834   -8.7433    0.0000 C   0  0  0  0  0  0  0  0  0  0  0  0
   14.7316   -9.4083    0.0000 C   0  0  0  0  0  0  0  0  0  0  0  0
   13.5798   -8.7433    0.0000 C   0  0  0  0  0  0  0  0  0  0  0  0
   12.4280   -9.4083    0.0000 C   0  0  0  0  0  0  0  0  0  0  0  0
   13.5798   -7.4133    0.0000 C   0  0  0  0  0  0  0  0  0  0  0  0
   14.7316   -6.7483    0.0000 C   0  0  0  0  0  0  0  0  0  0  0  0
  1  2  1  0  0  0  0
  2  3  1  0  0  0  0
  3  4  1  0  0  0  0
  4  5  1  0  0  0  0
  5  6  2  0  0  0  0
  5  7  1  0  0  0  0
  7  8  1  0  0  0  0
M  END
>  <NAME>
2-Ethyl-1-hexene

>  <INCHIKEY>
XTVRLCUJHGUXCP-UHFFFAOYSA-N

>  <RETENTION INDEX>
SemiStdNP=777.5

>  <POLYMER>
iso-PB (28)

>  <FORMULA>
C8H16

>  <MW>
112

>  <EXACT MASS>
112.1252007

>  <CASNO>
1632162

>  <ID>
132

>  <NUM PEAKS>
48

>  <MASS SPECTRAL PEAKS>
15 2
26 3
27 98
29 91
30 4
38 6
39 138
40 26
41 398
42 210
43 91
44 3
50 9
51 20
52 9
53 62
54 38
55 880
56 118
57 42
58 1
63 3
65 13
66 4
67 47
68 12
69 78
70 999
71 87
72 1
73 1
74 1
77 11
78 1
79 12
81 14
82 6
83 57
84 35
85 3
90 1
91 3
93 1
95 5
97 2
110 2
112 84
113 8

$$$$
3-METHYL-5-METHYLENEHEPTANE
  ACD/LABS04092414362D
CAS rn = 16623077, Library ID = 133
  9  8  0  0  0  0  0  0  0  0  1 V2000
   12.0447   -7.6504    0.0000 C   0  0  0  0  0  0  0  0  0  0  0  0
   10.8929   -6.9854    0.0000 C   0  0  0  0  0  0  0  0  0  0  0  0
   13.1965   -6.9854    0.0000 C   0  0  0  0  0  0  0  0  0  0  0  0
   10.8929   -5.6554    0.0000 C   0  0  0  0  0  0  0  0  0  0  0  0
    9.7411   -7.6504    0.0000 C   0  0  0  0  0  0  0  0  0  0  0  0
   12.0447   -4.9904    0.0000 C   0  0  0  0  0  0  0  0  0  0  0  0
   13.1965   -5.6554    0.0000 C   0  0  0  0  0  0  0  0  0  0  0  0
   14.3483   -4.9904    0.0000 C   0  0  0  0  0  0  0  0  0  0  0  0
   14.3483   -7.6504    0.0000 C   0  0  0  0  0  0  0  0  0  0  0  0
  1  2  1  0  0  0  0
  1  3  1  0  0  0  0
  2  4  1  0  0  0  0
  2  5  2  0  0  0  0
  3  7  1  0  0  0  0
  4  6  1  0  0  0  0
  7  8  1  0  0  0  0
  3  9  1  0  0  0  0
M  END
>  <NAME>
3-Methyl-5-methyleneheptane

>  <INCHIKEY>
PODMRPKNOJTVSG-UHFFFAOYSA-N

>  <RETENTION INDEX>
SemiStdNP=839.4

>  <POLYMER>
iso-PB (28)

>  <FORMULA>
C9H18

>  <MW>
126

>  <EXACT MASS>
126.1408505

>  <CASNO>
16623077

>  <ID>
133

>  <NUM PEAKS>
32

>  <MASS SPECTRAL PEAKS>
26 7
27 111
29 321
39 132
40 21
41 600
42 183
43 102
48 4
50 7
51 18
52 6
53 60
54 18
55 731
56 498
57 568
58 19
65 12
69 107
70 999
71 413
72 19
73 4
75 4
84 21
92 12
97 66
106 5
119 5
126 57
127 3

$$$$
2,4,6,8,10,12,14,16,18,20,22,24,26-TRIDECAETHYL-1,26-HEPTACOSADIENE
  ACD/LABS04152410393D
Library ID = 134
 53 52  0  0  0  0  0  0  0  0  1 V2000
    0.7421   -5.5285    0.0000 C   0  0  0  0  0  0  0  0  0  0  0  0
    1.8939   -4.8635    0.0000 C   0  0  0  0  0  0  0  0  0  0  0  0
    3.0457   -5.5285    0.0000 C   0  0  0  0  0  0  0  0  0  0  0  0
    4.1975   -4.8635    0.0000 C   0  0  0  0  0  0  0  0  0  0  0  0
    5.3494   -5.5285    0.0000 C   0  0  0  0  0  0  0  0  0  0  0  0
    6.5012   -4.8635    0.0000 C   0  0  0  0  0  0  0  0  0  0  0  0
    7.6530   -5.5285    0.0000 C   0  0  0  0  0  0  0  0  0  0  0  0
    8.8048   -4.8635    0.0000 C   0  0  0  0  0  0  0  0  0  0  0  0
    9.9566   -5.5285    0.0000 C   0  0  0  0  0  0  0  0  0  0  0  0
   11.1084   -4.8635    0.0000 C   0  0  0  0  0  0  0  0  0  0  0  0
   12.2602   -5.5285    0.0000 C   0  0  0  0  0  0  0  0  0  0  0  0
   11.1084   -3.5335    0.0000 C   0  0  0  0  0  0  0  0  0  0  0  0
   12.2602   -2.8685    0.0000 C   0  0  0  0  0  0  0  0  0  0  0  0
    8.8048   -3.5335    0.0000 C   0  0  0  0  0  0  0  0  0  0  0  0
    9.9566   -2.8685    0.0000 C   0  0  0  0  0  0  0  0  0  0  0  0
    6.5012   -3.5335    0.0000 C   0  0  0  0  0  0  0  0  0  0  0  0
    7.6530   -2.8685    0.0000 C   0  0  0  0  0  0  0  0  0  0  0  0
    4.1975   -3.5335    0.0000 C   0  0  0  0  0  0  0  0  0  0  0  0
    5.3494   -2.8685    0.0000 C   0  0  0  0  0  0  0  0  0  0  0  0
    1.8939   -3.5335    0.0000 C   0  0  0  0  0  0  0  0  0  0  0  0
    3.0457   -2.8685    0.0000 C   0  0  0  0  0  0  0  0  0  0  0  0
   13.4121   -4.8635    0.0000 C   0  0  0  0  0  0  0  0  0  0  0  0
   13.4121   -3.5335    0.0000 C   0  0  0  0  0  0  0  0  0  0  0  0
   14.5639   -2.8685    0.0000 C   0  0  0  0  0  0  0  0  0  0  0  0
   14.5639   -5.5285    0.0000 C   0  0  0  0  0  0  0  0  0  0  0  0
   15.7157   -4.8635    0.0000 C   0  0  0  0  0  0  0  0  0  0  0  0
   15.7157   -3.5335    0.0000 C   0  0  0  0  0  0  0  0  0  0  0  0
   16.8675   -2.8685    0.0000 C   0  0  0  0  0  0  0  0  0  0  0  0
   16.8675   -5.5285    0.0000 C   0  0  0  0  0  0  0  0  0  0  0  0
   18.0193   -4.8635    0.0000 C   0  0  0  0  0  0  0  0  0  0  0  0
   18.0193   -3.5335    0.0000 C   0  0  0  0  0  0  0  0  0  0  0  0
   19.1711   -2.8685    0.0000 C   0  0  0  0  0  0  0  0  0  0  0  0
   19.1711   -5.5285    0.0000 C   0  0  0  0  0  0  0  0  0  0  0  0
   20.3229   -4.8635    0.0000 C   0  0  0  0  0  0  0  0  0  0  0  0
   20.3229   -3.5335    0.0000 C   0  0  0  0  0  0  0  0  0  0  0  0
   21.4747   -2.8685    0.0000 C   0  0  0  0  0  0  0  0  0  0  0  0
   21.4747   -5.5285    0.0000 C   0  0  0  0  0  0  0  0  0  0  0  0
   22.6266   -4.8635    0.0000 C   0  0  0  0  0  0  0  0  0  0  0  0
   22.6266   -3.5335    0.0000 C   0  0  0  0  0  0  0  0  0  0  0  0
   23.7784   -2.8685    0.0000 C   0  0  0  0  0  0  0  0  0  0  0  0
   23.7784   -5.5285    0.0000 C   0  0  0  0  0  0  0  0  0  0  0  0
   24.9302   -4.8635    0.0000 C   0  0  0  0  0  0  0  0  0  0  0  0
   24.9302   -3.5335    0.0000 C   0  0  0  0  0  0  0  0  0  0  0  0
   26.0820   -2.8685    0.0000 C   0  0  0  0  0  0  0  0  0  0  0  0
   26.0820   -5.5285    0.0000 C   0  0  0  0  0  0  0  0  0  0  0  0
   27.2338   -4.8635    0.0000 C   0  0  0  0  0  0  0  0  0  0  0  0
   27.2338   -3.5335    0.0000 C   0  0  0  0  0  0  0  0  0  0  0  0
   28.3856   -5.5284    0.0000 C   0  0  0  0  0  0  0  0  0  0  0  0
   28.3856   -2.8684    0.0000 C   0  0  0  0  0  0  0  0  0  0  0  0
   29.5374   -4.8634    0.0000 C   0  0  0  0  0  0  0  0  0  0  0  0
   29.5374   -3.5334    0.0000 C   0  0  0  0  0  0  0  0  0  0  0  0
   30.6893   -5.5284    0.0000 C   0  0  0  0  0  0  0  0  0  0  0  0
   30.6892   -2.8684    0.0000 C   0  0  0  0  0  0  0  0  0  0  0  0
  1  2  2  0  0  0  0
  2  3  1  0  0  0  0
  3  4  1  0  0  0  0
  4  5  1  0  0  0  0
  5  6  1  0  0  0  0
  6  7  1  0  0  0  0
  7  8  1  0  0  0  0
  8  9  1  0  0  0  0
  9 10  1  0  0  0  0
 10 11  1  0  0  0  0
 12 13  1  0  0  0  0
 10 12  1  0  0  0  0
 14 15  1  0  0  0  0
  8 14  1  0  0  0  0
 16 17  1  0  0  0  0
  6 16  1  0  0  0  0
 18 19  1  0  0  0  0
  4 18  1  0  0  0  0
 20 21  1  0  0  0  0
  2 20  1  0  0  0  0
 11 22  1  0  0  0  0
 22 23  1  0  0  0  0
 23 24  1  0  0  0  0
 22 25  1  0  0  0  0
 25 26  1  0  0  0  0
 26 27  1  0  0  0  0
 27 28  1  0  0  0  0
 26 29  1  0  0  0  0
 29 30  1  0  0  0  0
 30 31  1  0  0  0  0
 31 32  1  0  0  0  0
 30 33  1  0  0  0  0
 33 34  1  0  0  0  0
 34 35  1  0  0  0  0
 35 36  1  0  0  0  0
 34 37  1  0  0  0  0
 37 38  1  0  0  0  0
 38 39  1  0  0  0  0
 39 40  1  0  0  0  0
 38 41  1  0  0  0  0
 41 42  1  0  0  0  0
 42 43  1  0  0  0  0
 43 44  1  0  0  0  0
 42 45  1  0  0  0  0
 45 46  1  0  0  0  0
 46 47  1  0  0  0  0
 46 48  1  0  0  0  0
 47 49  1  0  0  0  0
 48 50  1  0  0  0  0
 50 51  1  0  0  0  0
 50 52  2  0  0  0  0
 51 53  1  0  0  0  0
M  END
>  <NAME>
2,4,6,8,10,12,14,16,18,20,22,24,26-Tridecaethyl-1,26-heptacosadiene

>  <INCHIKEY>
XFZOLUGTRDOXSQ-UHFFFAOYSA-N

>  <POLYMER>
iso-PB (28)

>  <RETENTION INDEX>
SemiStdNP=3847.8

>  <FORMULA>
C53H104

>  <MW>
740

>  <EXACT MASS>
740.813805

>  <ID>
134

>  <COMMENT>
stereochemistry unknown

>  <NUM PEAKS>
102

>  <MASS SPECTRAL PEAKS>
29 13
39 3
40 3
41 66
42 9
43 157
44 4
53 4
54 4
55 336
56 39
57 609
58 29
67 30
68 9
69 485
70 97
71 433
72 25
74 2
75 1
76 2
79 7
81 52
82 10
83 443
84 43
85 323
86 21
90 2
91 2
93 2
95 61
96 86
97 999
98 105
99 149
100 11
109 44
110 85
111 644
112 106
113 120
114 10
123 61
124 41
125 217
126 32
127 81
128 6
136 2
137 55
138 12
139 148
140 19
141 51
142 4
151 69
152 51
153 175
154 28
155 45
156 5
165 51
166 34
167 126
168 24
169 33
170 4
178 2
179 40
180 9
181 39
182 9
183 20
193 29
194 4
195 21
197 10
207 27
208 7
209 33
210 5
211 8
221 10
222 8
223 10
224 3
225 5
227 2
235 9
236 3
237 3
240 4
249 7
251 2
263 5
264 6
277 2
319 2
429 2
494 1

$$$$
2,4,6,8,10,12,14,16,18,20,22,24-DODECAETHYL-1,24-PENTACOSADIENE
  ACD/LABS04152410333D
Library ID = 135
 49 48  0  0  0  0  0  0  0  0  1 V2000
    0.7421   -5.5285    0.0000 C   0  0  0  0  0  0  0  0  0  0  0  0
    1.8939   -4.8635    0.0000 C   0  0  0  0  0  0  0  0  0  0  0  0
    3.0457   -5.5285    0.0000 C   0  0  0  0  0  0  0  0  0  0  0  0
    4.1975   -4.8635    0.0000 C   0  0  0  0  0  0  0  0  0  0  0  0
    5.3494   -5.5285    0.0000 C   0  0  0  0  0  0  0  0  0  0  0  0
    6.5012   -4.8635    0.0000 C   0  0  0  0  0  0  0  0  0  0  0  0
    7.6530   -5.5285    0.0000 C   0  0  0  0  0  0  0  0  0  0  0  0
    8.8048   -4.8635    0.0000 C   0  0  0  0  0  0  0  0  0  0  0  0
    9.9566   -5.5285    0.0000 C   0  0  0  0  0  0  0  0  0  0  0  0
   11.1084   -4.8635    0.0000 C   0  0  0  0  0  0  0  0  0  0  0  0
   12.2602   -5.5285    0.0000 C   0  0  0  0  0  0  0  0  0  0  0  0
   11.1084   -3.5335    0.0000 C   0  0  0  0  0  0  0  0  0  0  0  0
   12.2602   -2.8685    0.0000 C   0  0  0  0  0  0  0  0  0  0  0  0
    8.8048   -3.5335    0.0000 C   0  0  0  0  0  0  0  0  0  0  0  0
    9.9566   -2.8685    0.0000 C   0  0  0  0  0  0  0  0  0  0  0  0
    6.5012   -3.5335    0.0000 C   0  0  0  0  0  0  0  0  0  0  0  0
    7.6530   -2.8685    0.0000 C   0  0  0  0  0  0  0  0  0  0  0  0
    4.1975   -3.5335    0.0000 C   0  0  0  0  0  0  0  0  0  0  0  0
    5.3494   -2.8685    0.0000 C   0  0  0  0  0  0  0  0  0  0  0  0
    1.8939   -3.5335    0.0000 C   0  0  0  0  0  0  0  0  0  0  0  0
    3.0457   -2.8685    0.0000 C   0  0  0  0  0  0  0  0  0  0  0  0
   13.4121   -4.8635    0.0000 C   0  0  0  0  0  0  0  0  0  0  0  0
   13.4121   -3.5335    0.0000 C   0  0  0  0  0  0  0  0  0  0  0  0
   14.5639   -2.8685    0.0000 C   0  0  0  0  0  0  0  0  0  0  0  0
   14.5639   -5.5285    0.0000 C   0  0  0  0  0  0  0  0  0  0  0  0
   15.7157   -4.8635    0.0000 C   0  0  0  0  0  0  0  0  0  0  0  0
   15.7157   -3.5335    0.0000 C   0  0  0  0  0  0  0  0  0  0  0  0
   16.8675   -2.8685    0.0000 C   0  0  0  0  0  0  0  0  0  0  0  0
   16.8675   -5.5285    0.0000 C   0  0  0  0  0  0  0  0  0  0  0  0
   18.0193   -4.8635    0.0000 C   0  0  0  0  0  0  0  0  0  0  0  0
   18.0193   -3.5335    0.0000 C   0  0  0  0  0  0  0  0  0  0  0  0
   19.1711   -2.8685    0.0000 C   0  0  0  0  0  0  0  0  0  0  0  0
   19.1711   -5.5285    0.0000 C   0  0  0  0  0  0  0  0  0  0  0  0
   20.3229   -4.8635    0.0000 C   0  0  0  0  0  0  0  0  0  0  0  0
   20.3229   -3.5335    0.0000 C   0  0  0  0  0  0  0  0  0  0  0  0
   21.4747   -2.8685    0.0000 C   0  0  0  0  0  0  0  0  0  0  0  0
   21.4747   -5.5285    0.0000 C   0  0  0  0  0  0  0  0  0  0  0  0
   22.6266   -4.8635    0.0000 C   0  0  0  0  0  0  0  0  0  0  0  0
   22.6266   -3.5335    0.0000 C   0  0  0  0  0  0  0  0  0  0  0  0
   23.7784   -2.8685    0.0000 C   0  0  0  0  0  0  0  0  0  0  0  0
   23.7784   -5.5285    0.0000 C   0  0  0  0  0  0  0  0  0  0  0  0
   24.9302   -4.8635    0.0000 C   0  0  0  0  0  0  0  0  0  0  0  0
   24.9302   -3.5335    0.0000 C   0  0  0  0  0  0  0  0  0  0  0  0
   26.0820   -2.8685    0.0000 C   0  0  0  0  0  0  0  0  0  0  0  0
   26.0820   -5.5285    0.0000 C   0  0  0  0  0  0  0  0  0  0  0  0
   27.2338   -4.8635    0.0000 C   0  0  0  0  0  0  0  0  0  0  0  0
   27.2338   -3.5335    0.0000 C   0  0  0  0  0  0  0  0  0  0  0  0
   28.3856   -5.5284    0.0000 C   0  0  0  0  0  0  0  0  0  0  0  0
   28.3856   -2.8684    0.0000 C   0  0  0  0  0  0  0  0  0  0  0  0
  1  2  2  0  0  0  0
  2  3  1  0  0  0  0
  3  4  1  0  0  0  0
  4  5  1  0  0  0  0
  5  6  1  0  0  0  0
  6  7  1  0  0  0  0
  7  8  1  0  0  0  0
  8  9  1  0  0  0  0
  9 10  1  0  0  0  0
 10 11  1  0  0  0  0
 12 13  1  0  0  0  0
 10 12  1  0  0  0  0
 14 15  1  0  0  0  0
  8 14  1  0  0  0  0
 16 17  1  0  0  0  0
  6 16  1  0  0  0  0
 18 19  1  0  0  0  0
  4 18  1  0  0  0  0
 20 21  1  0  0  0  0
  2 20  1  0  0  0  0
 11 22  1  0  0  0  0
 22 23  1  0  0  0  0
 23 24  1  0  0  0  0
 22 25  1  0  0  0  0
 25 26  1  0  0  0  0
 26 27  1  0  0  0  0
 27 28  1  0  0  0  0
 26 29  1  0  0  0  0
 29 30  1  0  0  0  0
 30 31  1  0  0  0  0
 31 32  1  0  0  0  0
 30 33  1  0  0  0  0
 33 34  1  0  0  0  0
 34 35  1  0  0  0  0
 35 36  1  0  0  0  0
 34 37  1  0  0  0  0
 37 38  1  0  0  0  0
 38 39  1  0  0  0  0
 39 40  1  0  0  0  0
 38 41  1  0  0  0  0
 41 42  1  0  0  0  0
 42 43  1  0  0  0  0
 43 44  1  0  0  0  0
 42 45  1  0  0  0  0
 45 46  1  0  0  0  0
 46 47  1  0  0  0  0
 46 48  2  0  0  0  0
 47 49  1  0  0  0  0
M  END
>  <NAME>
2,4,6,8,10,12,14,16,18,20,22,24-Dodecaethyl-1,24-pentacosadiene

>  <INCHIKEY>
QGZOVPGYDUSNCA-UHFFFAOYSA-N

>  <POLYMER>
iso-PB (28)

>  <RETENTION INDEX>
SemiStdNP=3587.7

>  <FORMULA>
C49H96

>  <MW>
684

>  <EXACT MASS>
684.7512

>  <ID>
135

>  <COMMENT>
stereochemistry unknown

>  <NUM PEAKS>
102

>  <MASS SPECTRAL PEAKS>
29 13
34 2
39 8
41 81
42 7
43 173
44 8
45 3
53 6
54 4
55 381
56 38
57 598
58 27
60 2
67 31
68 10
69 510
70 100
71 419
72 22
79 10
81 55
82 15
83 450
84 42
85 297
86 22
89 2
91 1
93 4
95 64
96 94
97 999
98 103
99 134
100 11
107 3
109 46
110 92
111 644
112 102
113 110
114 8
122 2
123 66
124 46
125 212
126 29
127 66
128 4
131 2
137 63
138 11
139 140
140 16
141 43
151 73
152 51
153 161
154 25
155 34
156 2
165 55
166 34
167 109
168 21
169 27
171 2
179 42
180 10
181 33
182 9
183 15
192 2
193 33
194 4
195 16
196 1
197 8
207 20
208 8
209 27
210 2
211 6
214 2
221 11
222 9
223 8
224 2
235 11
236 3
237 2
241 2
249 8
263 5
264 2
277 2
278 2
298 2
341 2
656 3

$$$$
2,4,6,8,10,12,14,16,18,20,22-UNDECAETHYL-1,22-TRICOSADIENE
  ACD/LABS04152410273D
Library ID = 136
 45 44  0  0  0  0  0  0  0  0  1 V2000
    9.2597   -6.5672    0.0000 C   0  0  0  0  0  0  0  0  0  0  0  0
   10.4115   -5.9022    0.0000 C   0  0  0  0  0  0  0  0  0  0  0  0
   11.5633   -6.5672    0.0000 C   0  0  0  0  0  0  0  0  0  0  0  0
   12.7151   -5.9022    0.0000 C   0  0  0  0  0  0  0  0  0  0  0  0
   13.8669   -6.5672    0.0000 C   0  0  0  0  0  0  0  0  0  0  0  0
   15.0188   -5.9022    0.0000 C   0  0  0  0  0  0  0  0  0  0  0  0
   16.1706   -6.5672    0.0000 C   0  0  0  0  0  0  0  0  0  0  0  0
   17.3224   -5.9022    0.0000 C   0  0  0  0  0  0  0  0  0  0  0  0
   18.4742   -6.5672    0.0000 C   0  0  0  0  0  0  0  0  0  0  0  0
   19.6260   -5.9022    0.0000 C   0  0  0  0  0  0  0  0  0  0  0  0
   20.7778   -6.5672    0.0000 C   0  0  0  0  0  0  0  0  0  0  0  0
   19.6260   -4.5722    0.0000 C   0  0  0  0  0  0  0  0  0  0  0  0
   20.7778   -3.9072    0.0000 C   0  0  0  0  0  0  0  0  0  0  0  0
   17.3224   -4.5722    0.0000 C   0  0  0  0  0  0  0  0  0  0  0  0
   18.4742   -3.9072    0.0000 C   0  0  0  0  0  0  0  0  0  0  0  0
   15.0188   -4.5722    0.0000 C   0  0  0  0  0  0  0  0  0  0  0  0
   16.1706   -3.9072    0.0000 C   0  0  0  0  0  0  0  0  0  0  0  0
   12.7151   -4.5722    0.0000 C   0  0  0  0  0  0  0  0  0  0  0  0
   13.8669   -3.9072    0.0000 C   0  0  0  0  0  0  0  0  0  0  0  0
   10.4115   -4.5722    0.0000 C   0  0  0  0  0  0  0  0  0  0  0  0
   11.5633   -3.9072    0.0000 C   0  0  0  0  0  0  0  0  0  0  0  0
   21.9296   -5.9022    0.0000 C   0  0  0  0  0  0  0  0  0  0  0  0
   21.9296   -4.5722    0.0000 C   0  0  0  0  0  0  0  0  0  0  0  0
   23.0814   -3.9072    0.0000 C   0  0  0  0  0  0  0  0  0  0  0  0
   23.0814   -6.5672    0.0000 C   0  0  0  0  0  0  0  0  0  0  0  0
   24.2333   -5.9022    0.0000 C   0  0  0  0  0  0  0  0  0  0  0  0
   24.2333   -4.5722    0.0000 C   0  0  0  0  0  0  0  0  0  0  0  0
   25.3851   -3.9072    0.0000 C   0  0  0  0  0  0  0  0  0  0  0  0
   25.3851   -6.5672    0.0000 C   0  0  0  0  0  0  0  0  0  0  0  0
   26.5369   -5.9022    0.0000 C   0  0  0  0  0  0  0  0  0  0  0  0
   26.5369   -4.5722    0.0000 C   0  0  0  0  0  0  0  0  0  0  0  0
   27.6887   -3.9072    0.0000 C   0  0  0  0  0  0  0  0  0  0  0  0
   27.6887   -6.5672    0.0000 C   0  0  0  0  0  0  0  0  0  0  0  0
   28.8405   -5.9022    0.0000 C   0  0  0  0  0  0  0  0  0  0  0  0
   28.8405   -4.5722    0.0000 C   0  0  0  0  0  0  0  0  0  0  0  0
   29.9923   -3.9072    0.0000 C   0  0  0  0  0  0  0  0  0  0  0  0
   29.9923   -6.5672    0.0000 C   0  0  0  0  0  0  0  0  0  0  0  0
   31.1441   -5.9022    0.0000 C   0  0  0  0  0  0  0  0  0  0  0  0
   31.1441   -4.5722    0.0000 C   0  0  0  0  0  0  0  0  0  0  0  0
   32.2959   -3.9072    0.0000 C   0  0  0  0  0  0  0  0  0  0  0  0
   32.2960   -6.5672    0.0000 C   0  0  0  0  0  0  0  0  0  0  0  0
   33.4478   -5.9022    0.0000 C   0  0  0  0  0  0  0  0  0  0  0  0
   33.4478   -4.5722    0.0000 C   0  0  0  0  0  0  0  0  0  0  0  0
   34.5996   -3.9072    0.0000 C   0  0  0  0  0  0  0  0  0  0  0  0
   34.5996   -6.5672    0.0000 C   0  0  0  0  0  0  0  0  0  0  0  0
  1  2  2  0  0  0  0
  2  3  1  0  0  0  0
  3  4  1  0  0  0  0
  4  5  1  0  0  0  0
  5  6  1  0  0  0  0
  6  7  1  0  0  0  0
  7  8  1  0  0  0  0
  8  9  1  0  0  0  0
  9 10  1  0  0  0  0
 10 11  1  0  0  0  0
 12 13  1  0  0  0  0
 10 12  1  0  0  0  0
 14 15  1  0  0  0  0
  8 14  1  0  0  0  0
 16 17  1  0  0  0  0
  6 16  1  0  0  0  0
 18 19  1  0  0  0  0
  4 18  1  0  0  0  0
 20 21  1  0  0  0  0
  2 20  1  0  0  0  0
 11 22  1  0  0  0  0
 22 23  1  0  0  0  0
 23 24  1  0  0  0  0
 22 25  1  0  0  0  0
 25 26  1  0  0  0  0
 26 27  1  0  0  0  0
 27 28  1  0  0  0  0
 26 29  1  0  0  0  0
 29 30  1  0  0  0  0
 30 31  1  0  0  0  0
 31 32  1  0  0  0  0
 30 33  1  0  0  0  0
 33 34  1  0  0  0  0
 34 35  1  0  0  0  0
 35 36  1  0  0  0  0
 34 37  1  0  0  0  0
 37 38  1  0  0  0  0
 38 39  1  0  0  0  0
 39 40  1  0  0  0  0
 38 41  1  0  0  0  0
 41 42  1  0  0  0  0
 42 43  1  0  0  0  0
 43 44  1  0  0  0  0
 42 45  2  0  0  0  0
M  END
>  <NAME>
2,4,6,8,10,12,14,16,18,20,22-Undecaethyl-1,22-tricosadiene

>  <INCHIKEY>
FANOOIMDTBKDCV-UHFFFAOYSA-N

>  <POLYMER>
iso-PB (28)

>  <RETENTION INDEX>
SemiStdNP=3327.3

>  <FORMULA>
C45H88

>  <MW>
628

>  <EXACT MASS>
628.688602

>  <ID>
136

>  <COMMENT>
stereochemistry unknown

>  <NUM PEAKS>
87

>  <MASS SPECTRAL PEAKS>
29 15
39 6
41 101
42 9
43 192
44 5
53 9
55 446
56 45
57 590
58 30
65 2
67 39
68 12
69 578
70 107
71 415
72 21
79 8
81 62
82 12
83 468
84 46
85 288
86 19
93 6
95 75
96 109
97 999
98 103
99 126
100 8
108 3
109 49
110 107
111 687
112 102
113 97
114 8
122 2
123 73
124 54
125 218
126 28
127 61
128 6
137 69
138 13
139 132
140 15
141 31
151 84
152 55
153 156
154 22
155 28
165 64
166 39
167 105
168 19
169 22
179 48
180 10
181 29
182 6
183 10
193 37
194 7
195 16
197 6
207 24
208 8
209 23
221 13
222 9
223 6
227 2
235 10
236 3
237 5
238 3
249 8
263 8
292 3
319 3
384 2
417 2

$$$$
5,7,9,11,13,15,17,19-OCTAETHYL-3,21-DIMETHYLENETRICOSANE
  ACD/LABS04122416163D
Library ID = 137
 41 40  0  0  0  0  0  0  0  0  1 V2000
    9.2597   -6.5672    0.0000 C   0  0  0  0  0  0  0  0  0  0  0  0
   10.4115   -5.9022    0.0000 C   0  0  0  0  0  0  0  0  0  0  0  0
   11.5633   -6.5672    0.0000 C   0  0  0  0  0  0  0  0  0  0  0  0
   12.7151   -5.9022    0.0000 C   0  0  0  0  0  0  0  0  0  0  0  0
   13.8669   -6.5672    0.0000 C   0  0  0  0  0  0  0  0  0  0  0  0
   15.0188   -5.9022    0.0000 C   0  0  0  0  0  0  0  0  0  0  0  0
   16.1706   -6.5672    0.0000 C   0  0  0  0  0  0  0  0  0  0  0  0
   17.3224   -5.9022    0.0000 C   0  0  0  0  0  0  0  0  0  0  0  0
   18.4742   -6.5672    0.0000 C   0  0  0  0  0  0  0  0  0  0  0  0
   19.6260   -5.9022    0.0000 C   0  0  0  0  0  0  0  0  0  0  0  0
   20.7778   -6.5672    0.0000 C   0  0  0  0  0  0  0  0  0  0  0  0
   19.6260   -4.5722    0.0000 C   0  0  0  0  0  0  0  0  0  0  0  0
   20.7778   -3.9072    0.0000 C   0  0  0  0  0  0  0  0  0  0  0  0
   17.3224   -4.5722    0.0000 C   0  0  0  0  0  0  0  0  0  0  0  0
   18.4742   -3.9072    0.0000 C   0  0  0  0  0  0  0  0  0  0  0  0
   15.0188   -4.5722    0.0000 C   0  0  0  0  0  0  0  0  0  0  0  0
   16.1706   -3.9072    0.0000 C   0  0  0  0  0  0  0  0  0  0  0  0
   12.7151   -4.5722    0.0000 C   0  0  0  0  0  0  0  0  0  0  0  0
   13.8669   -3.9072    0.0000 C   0  0  0  0  0  0  0  0  0  0  0  0
   10.4115   -4.5722    0.0000 C   0  0  0  0  0  0  0  0  0  0  0  0
   11.5633   -3.9072    0.0000 C   0  0  0  0  0  0  0  0  0  0  0  0
   21.9296   -5.9022    0.0000 C   0  0  0  0  0  0  0  0  0  0  0  0
   21.9296   -4.5722    0.0000 C   0  0  0  0  0  0  0  0  0  0  0  0
   23.0814   -3.9072    0.0000 C   0  0  0  0  0  0  0  0  0  0  0  0
   23.0814   -6.5672    0.0000 C   0  0  0  0  0  0  0  0  0  0  0  0
   24.2333   -5.9022    0.0000 C   0  0  0  0  0  0  0  0  0  0  0  0
   24.2333   -4.5722    0.0000 C   0  0  0  0  0  0  0  0  0  0  0  0
   25.3851   -3.9072    0.0000 C   0  0  0  0  0  0  0  0  0  0  0  0
   25.3851   -6.5672    0.0000 C   0  0  0  0  0  0  0  0  0  0  0  0
   26.5369   -5.9022    0.0000 C   0  0  0  0  0  0  0  0  0  0  0  0
   26.5369   -4.5722    0.0000 C   0  0  0  0  0  0  0  0  0  0  0  0
   27.6887   -3.9072    0.0000 C   0  0  0  0  0  0  0  0  0  0  0  0
   27.6887   -6.5672    0.0000 C   0  0  0  0  0  0  0  0  0  0  0  0
   28.8405   -5.9022    0.0000 C   0  0  0  0  0  0  0  0  0  0  0  0
   28.8405   -4.5722    0.0000 C   0  0  0  0  0  0  0  0  0  0  0  0
   29.9923   -3.9072    0.0000 C   0  0  0  0  0  0  0  0  0  0  0  0
   29.9923   -6.5672    0.0000 C   0  0  0  0  0  0  0  0  0  0  0  0
   31.1441   -5.9022    0.0000 C   0  0  0  0  0  0  0  0  0  0  0  0
   31.1441   -4.5722    0.0000 C   0  0  0  0  0  0  0  0  0  0  0  0
   32.2959   -3.9072    0.0000 C   0  0  0  0  0  0  0  0  0  0  0  0
   32.2960   -6.5672    0.0000 C   0  0  0  0  0  0  0  0  0  0  0  0
  1  2  2  0  0  0  0
  2  3  1  0  0  0  0
  3  4  1  0  0  0  0
  4  5  1  0  0  0  0
  5  6  1  0  0  0  0
  6  7  1  0  0  0  0
  7  8  1  0  0  0  0
  8  9  1  0  0  0  0
  9 10  1  0  0  0  0
 10 11  1  0  0  0  0
 12 13  1  0  0  0  0
 10 12  1  0  0  0  0
 14 15  1  0  0  0  0
  8 14  1  0  0  0  0
 16 17  1  0  0  0  0
  6 16  1  0  0  0  0
 18 19  1  0  0  0  0
  4 18  1  0  0  0  0
 20 21  1  0  0  0  0
  2 20  1  0  0  0  0
 11 22  1  0  0  0  0
 22 23  1  0  0  0  0
 23 24  1  0  0  0  0
 22 25  1  0  0  0  0
 25 26  1  0  0  0  0
 26 27  1  0  0  0  0
 27 28  1  0  0  0  0
 26 29  1  0  0  0  0
 29 30  1  0  0  0  0
 30 31  1  0  0  0  0
 31 32  1  0  0  0  0
 30 33  1  0  0  0  0
 33 34  1  0  0  0  0
 34 35  1  0  0  0  0
 35 36  1  0  0  0  0
 34 37  1  0  0  0  0
 37 38  1  0  0  0  0
 38 39  1  0  0  0  0
 39 40  1  0  0  0  0
 38 41  2  0  0  0  0
M  END
>  <NAME>
5,7,9,11,13,15,17,19-octaethyl-3,21-dimethylenetricosane

>  <INCHIKEY>
VKACVKMPTXBUQT-UHFFFAOYSA-N

>  <POLYMER>
iso-PB (28)

>  <RETENTION INDEX>
SemiStdNP=3066.3

>  <FORMULA>
C41H80

>  <MW>
572

>  <EXACT MASS>
572.626003

>  <ID>
137

>  <COMMENT>
stereochemistry unknown

>  <NUM PEAKS>
80

>  <MASS SPECTRAL PEAKS>
19 5
27 5
29 23
39 10
41 128
42 14
43 212
53 9
54 7
55 508
56 52
57 575
58 28
67 45
68 14
69 598
70 107
71 391
72 20
79 9
81 66
82 14
83 484
84 43
85 247
86 17
93 2
95 78
96 121
97 999
98 97
99 107
100 8
109 54
110 120
111 661
112 94
113 79
114 5
123 79
124 59
125 196
126 27
127 47
137 77
138 15
139 117
140 14
141 24
151 95
152 55
153 133
154 19
155 18
165 70
166 39
167 90
168 16
169 10
179 56
180 11
181 22
183 2
193 43
195 12
207 28
208 6
209 16
221 16
222 8
223 5
235 10
236 6
249 7
263 5
277 6
305 3
328 3
361 3
543 3

$$$$
5,7,9,11,13,15,17-HEPTAETHYL-3,19-DIMETHYLENEHENICOSANE
  ACD/LABS04122416123D
Library ID = 138
 37 36  0  0  0  0  0  0  0  0  1 V2000
    9.2597   -6.5672    0.0000 C   0  0  0  0  0  0  0  0  0  0  0  0
   10.4115   -5.9022    0.0000 C   0  0  0  0  0  0  0  0  0  0  0  0
   11.5633   -6.5672    0.0000 C   0  0  0  0  0  0  0  0  0  0  0  0
   12.7151   -5.9022    0.0000 C   0  0  0  0  0  0  0  0  0  0  0  0
   13.8669   -6.5672    0.0000 C   0  0  0  0  0  0  0  0  0  0  0  0
   15.0188   -5.9022    0.0000 C   0  0  0  0  0  0  0  0  0  0  0  0
   16.1706   -6.5672    0.0000 C   0  0  0  0  0  0  0  0  0  0  0  0
   17.3224   -5.9022    0.0000 C   0  0  0  0  0  0  0  0  0  0  0  0
   18.4742   -6.5672    0.0000 C   0  0  0  0  0  0  0  0  0  0  0  0
   19.6260   -5.9022    0.0000 C   0  0  0  0  0  0  0  0  0  0  0  0
   20.7778   -6.5672    0.0000 C   0  0  0  0  0  0  0  0  0  0  0  0
   19.6260   -4.5722    0.0000 C   0  0  0  0  0  0  0  0  0  0  0  0
   20.7778   -3.9072    0.0000 C   0  0  0  0  0  0  0  0  0  0  0  0
   17.3224   -4.5722    0.0000 C   0  0  0  0  0  0  0  0  0  0  0  0
   18.4742   -3.9072    0.0000 C   0  0  0  0  0  0  0  0  0  0  0  0
   15.0188   -4.5722    0.0000 C   0  0  0  0  0  0  0  0  0  0  0  0
   16.1706   -3.9072    0.0000 C   0  0  0  0  0  0  0  0  0  0  0  0
   12.7151   -4.5722    0.0000 C   0  0  0  0  0  0  0  0  0  0  0  0
   13.8669   -3.9072    0.0000 C   0  0  0  0  0  0  0  0  0  0  0  0
   10.4115   -4.5722    0.0000 C   0  0  0  0  0  0  0  0  0  0  0  0
   11.5633   -3.9072    0.0000 C   0  0  0  0  0  0  0  0  0  0  0  0
   21.9296   -5.9022    0.0000 C   0  0  0  0  0  0  0  0  0  0  0  0
   21.9296   -4.5722    0.0000 C   0  0  0  0  0  0  0  0  0  0  0  0
   23.0814   -3.9072    0.0000 C   0  0  0  0  0  0  0  0  0  0  0  0
   23.0814   -6.5672    0.0000 C   0  0  0  0  0  0  0  0  0  0  0  0
   24.2333   -5.9022    0.0000 C   0  0  0  0  0  0  0  0  0  0  0  0
   24.2333   -4.5722    0.0000 C   0  0  0  0  0  0  0  0  0  0  0  0
   25.3851   -3.9072    0.0000 C   0  0  0  0  0  0  0  0  0  0  0  0
   25.3851   -6.5672    0.0000 C   0  0  0  0  0  0  0  0  0  0  0  0
   26.5369   -5.9022    0.0000 C   0  0  0  0  0  0  0  0  0  0  0  0
   26.5369   -4.5722    0.0000 C   0  0  0  0  0  0  0  0  0  0  0  0
   27.6887   -3.9072    0.0000 C   0  0  0  0  0  0  0  0  0  0  0  0
   27.6887   -6.5672    0.0000 C   0  0  0  0  0  0  0  0  0  0  0  0
   28.8405   -5.9022    0.0000 C   0  0  0  0  0  0  0  0  0  0  0  0
   28.8405   -4.5722    0.0000 C   0  0  0  0  0  0  0  0  0  0  0  0
   29.9923   -3.9072    0.0000 C   0  0  0  0  0  0  0  0  0  0  0  0
   29.9923   -6.5672    0.0000 C   0  0  0  0  0  0  0  0  0  0  0  0
  1  2  2  0  0  0  0
  2  3  1  0  0  0  0
  3  4  1  0  0  0  0
  4  5  1  0  0  0  0
  5  6  1  0  0  0  0
  6  7  1  0  0  0  0
  7  8  1  0  0  0  0
  8  9  1  0  0  0  0
  9 10  1  0  0  0  0
 10 11  1  0  0  0  0
 12 13  1  0  0  0  0
 10 12  1  0  0  0  0
 14 15  1  0  0  0  0
  8 14  1  0  0  0  0
 16 17  1  0  0  0  0
  6 16  1  0  0  0  0
 18 19  1  0  0  0  0
  4 18  1  0  0  0  0
 20 21  1  0  0  0  0
  2 20  1  0  0  0  0
 11 22  1  0  0  0  0
 22 23  1  0  0  0  0
 23 24  1  0  0  0  0
 22 25  1  0  0  0  0
 25 26  1  0  0  0  0
 26 27  1  0  0  0  0
 27 28  1  0  0  0  0
 26 29  1  0  0  0  0
 29 30  1  0  0  0  0
 30 31  1  0  0  0  0
 31 32  1  0  0  0  0
 30 33  1  0  0  0  0
 33 34  1  0  0  0  0
 34 35  1  0  0  0  0
 35 36  1  0  0  0  0
 34 37  2  0  0  0  0
M  END
>  <NAME>
5,7,9,11,13,15,17-Heptaethyl-3,19-dimethylenehenicosane

>  <INCHIKEY>
XFBMQNIYTBFNCI-UHFFFAOYSA-N

>  <POLYMER>
iso-PB (28)

>  <RETENTION INDEX>
SemiStdNP=2805

>  <FORMULA>
C37H72

>  <MW>
516

>  <EXACT MASS>
516.563404

>  <ID>
138

>  <COMMENT>
stereochemistry unknown

>  <NUM PEAKS>
93

>  <MASS SPECTRAL PEAKS>
24 5
27 4
29 29
39 15
41 165
42 16
43 233
44 8
53 10
54 6
55 571
56 61
57 575
58 27
65 3
67 53
68 14
69 664
70 114
71 357
72 19
79 12
80 2
81 75
82 11
83 502
84 45
85 223
86 16
91 3
93 7
95 87
96 136
97 999
98 96
99 93
100 7
107 2
109 60
110 142
111 672
112 93
113 66
114 5
123 97
124 68
125 179
126 26
127 35
137 92
138 17
139 104
140 11
141 14
148 2
151 111
152 58
153 120
154 17
155 9
165 81
166 38
167 76
168 12
169 7
174 1
179 61
180 11
181 16
182 3
183 2
193 49
194 5
195 7
206 3
207 29
208 6
209 10
215 3
221 13
222 10
223 3
229 3
235 16
249 11
263 5
277 2
305 4
329 3
365 2
371 2
433 2
487 9

$$$$
2,4,6,8,10,12,14,16-OCTAETHYL-1,16-HEPTADECADIENE
  ACD/LABS04122416093D
Library ID = 139
 33 32  0  0  0  0  0  0  0  0  1 V2000
    9.2597   -6.5672    0.0000 C   0  0  0  0  0  0  0  0  0  0  0  0
   10.4115   -5.9022    0.0000 C   0  0  0  0  0  0  0  0  0  0  0  0
   11.5633   -6.5672    0.0000 C   0  0  0  0  0  0  0  0  0  0  0  0
   12.7151   -5.9022    0.0000 C   0  0  0  0  0  0  0  0  0  0  0  0
   13.8669   -6.5672    0.0000 C   0  0  0  0  0  0  0  0  0  0  0  0
   15.0188   -5.9022    0.0000 C   0  0  0  0  0  0  0  0  0  0  0  0
   16.1706   -6.5672    0.0000 C   0  0  0  0  0  0  0  0  0  0  0  0
   17.3224   -5.9022    0.0000 C   0  0  0  0  0  0  0  0  0  0  0  0
   18.4742   -6.5672    0.0000 C   0  0  0  0  0  0  0  0  0  0  0  0
   19.6260   -5.9022    0.0000 C   0  0  0  0  0  0  0  0  0  0  0  0
   20.7778   -6.5672    0.0000 C   0  0  0  0  0  0  0  0  0  0  0  0
   19.6260   -4.5722    0.0000 C   0  0  0  0  0  0  0  0  0  0  0  0
   20.7778   -3.9072    0.0000 C   0  0  0  0  0  0  0  0  0  0  0  0
   17.3224   -4.5722    0.0000 C   0  0  0  0  0  0  0  0  0  0  0  0
   18.4742   -3.9072    0.0000 C   0  0  0  0  0  0  0  0  0  0  0  0
   15.0188   -4.5722    0.0000 C   0  0  0  0  0  0  0  0  0  0  0  0
   16.1706   -3.9072    0.0000 C   0  0  0  0  0  0  0  0  0  0  0  0
   12.7151   -4.5722    0.0000 C   0  0  0  0  0  0  0  0  0  0  0  0
   13.8669   -3.9072    0.0000 C   0  0  0  0  0  0  0  0  0  0  0  0
   10.4115   -4.5722    0.0000 C   0  0  0  0  0  0  0  0  0  0  0  0
   11.5633   -3.9072    0.0000 C   0  0  0  0  0  0  0  0  0  0  0  0
   21.9296   -5.9022    0.0000 C   0  0  0  0  0  0  0  0  0  0  0  0
   21.9296   -4.5722    0.0000 C   0  0  0  0  0  0  0  0  0  0  0  0
   23.0814   -3.9072    0.0000 C   0  0  0  0  0  0  0  0  0  0  0  0
   23.0814   -6.5672    0.0000 C   0  0  0  0  0  0  0  0  0  0  0  0
   24.2333   -5.9022    0.0000 C   0  0  0  0  0  0  0  0  0  0  0  0
   24.2333   -4.5722    0.0000 C   0  0  0  0  0  0  0  0  0  0  0  0
   25.3851   -3.9072    0.0000 C   0  0  0  0  0  0  0  0  0  0  0  0
   25.3851   -6.5672    0.0000 C   0  0  0  0  0  0  0  0  0  0  0  0
   26.5369   -5.9022    0.0000 C   0  0  0  0  0  0  0  0  0  0  0  0
   26.5369   -4.5722    0.0000 C   0  0  0  0  0  0  0  0  0  0  0  0
   27.6887   -3.9072    0.0000 C   0  0  0  0  0  0  0  0  0  0  0  0
   27.6887   -6.5672    0.0000 C   0  0  0  0  0  0  0  0  0  0  0  0
  1  2  2  0  0  0  0
  2  3  1  0  0  0  0
  3  4  1  0  0  0  0
  4  5  1  0  0  0  0
  5  6  1  0  0  0  0
  6  7  1  0  0  0  0
  7  8  1  0  0  0  0
  8  9  1  0  0  0  0
  9 10  1  0  0  0  0
 10 11  1  0  0  0  0
 12 13  1  0  0  0  0
 10 12  1  0  0  0  0
 14 15  1  0  0  0  0
  8 14  1  0  0  0  0
 16 17  1  0  0  0  0
  6 16  1  0  0  0  0
 18 19  1  0  0  0  0
  4 18  1  0  0  0  0
 20 21  1  0  0  0  0
  2 20  1  0  0  0  0
 11 22  1  0  0  0  0
 22 23  1  0  0  0  0
 23 24  1  0  0  0  0
 22 25  1  0  0  0  0
 25 26  1  0  0  0  0
 26 27  1  0  0  0  0
 27 28  1  0  0  0  0
 26 29  1  0  0  0  0
 29 30  1  0  0  0  0
 30 31  1  0  0  0  0
 31 32  1  0  0  0  0
 30 33  2  0  0  0  0
M  END
>  <NAME>
2,4,6,8,10,12,14,16-Octaethyl-1,16-heptadecadiene

>  <INCHIKEY>
NCJJLSARXRKFBB-UHFFFAOYSA-N

>  <POLYMER>
iso-PB (28)

>  <RETENTION INDEX>
SemiStdNP=2544

>  <FORMULA>
C33H64

>  <MW>
460

>  <EXACT MASS>
460.500803

>  <ID>
139

>  <COMMENT>
stereochemistry unknown

>  <NUM PEAKS>
83

>  <MASS SPECTRAL PEAKS>
25 6
27 7
29 39
38 3
39 14
41 220
42 23
43 237
44 3
52 3
53 14
54 8
55 687
56 66
57 546
58 25
59 3
63 3
67 63
68 16
69 724
70 120
71 315
72 17
77 2
79 14
80 4
81 87
82 16
83 521
84 47
85 191
86 13
91 3
93 4
95 100
96 175
97 999
98 92
99 72
107 3
109 75
110 169
111 657
112 84
113 46
123 118
124 84
125 157
126 18
127 21
137 108
138 18
139 88
140 9
141 7
142 3
151 131
152 56
153 91
154 10
155 7
165 89
166 40
167 62
168 9
169 3
178 4
179 80
180 14
181 12
193 58
194 10
207 31
208 5
209 7
221 12
222 7
235 9
244 4
249 14
361 4
431 7

$$$$
2,4,6,8,10,12,14-HEPTAETHYL-1-OCTADECENE
  ACD/LABS04122416053D
Library ID = 140
 32 31  0  0  0  0  0  0  0  0  1 V2000
    9.2597   -6.5672    0.0000 C   0  0  0  0  0  0  0  0  0  0  0  0
   10.4115   -5.9022    0.0000 C   0  0  0  0  0  0  0  0  0  0  0  0
   11.5633   -6.5672    0.0000 C   0  0  0  0  0  0  0  0  0  0  0  0
   12.7151   -5.9022    0.0000 C   0  0  0  0  0  0  0  0  0  0  0  0
   13.8669   -6.5672    0.0000 C   0  0  0  0  0  0  0  0  0  0  0  0
   15.0188   -5.9022    0.0000 C   0  0  0  0  0  0  0  0  0  0  0  0
   16.1706   -6.5672    0.0000 C   0  0  0  0  0  0  0  0  0  0  0  0
   17.3224   -5.9022    0.0000 C   0  0  0  0  0  0  0  0  0  0  0  0
   18.4742   -6.5672    0.0000 C   0  0  0  0  0  0  0  0  0  0  0  0
   19.6260   -5.9022    0.0000 C   0  0  0  0  0  0  0  0  0  0  0  0
   20.7778   -6.5672    0.0000 C   0  0  0  0  0  0  0  0  0  0  0  0
   19.6260   -4.5722    0.0000 C   0  0  0  0  0  0  0  0  0  0  0  0
   20.7778   -3.9072    0.0000 C   0  0  0  0  0  0  0  0  0  0  0  0
   17.3224   -4.5722    0.0000 C   0  0  0  0  0  0  0  0  0  0  0  0
   18.4742   -3.9072    0.0000 C   0  0  0  0  0  0  0  0  0  0  0  0
   15.0188   -4.5722    0.0000 C   0  0  0  0  0  0  0  0  0  0  0  0
   16.1706   -3.9072    0.0000 C   0  0  0  0  0  0  0  0  0  0  0  0
   12.7151   -4.5722    0.0000 C   0  0  0  0  0  0  0  0  0  0  0  0
   13.8669   -3.9072    0.0000 C   0  0  0  0  0  0  0  0  0  0  0  0
   10.4115   -4.5722    0.0000 C   0  0  0  0  0  0  0  0  0  0  0  0
   11.5633   -3.9072    0.0000 C   0  0  0  0  0  0  0  0  0  0  0  0
   21.9296   -5.9022    0.0000 C   0  0  0  0  0  0  0  0  0  0  0  0
   21.9296   -4.5722    0.0000 C   0  0  0  0  0  0  0  0  0  0  0  0
   23.0814   -3.9072    0.0000 C   0  0  0  0  0  0  0  0  0  0  0  0
   23.0814   -6.5672    0.0000 C   0  0  0  0  0  0  0  0  0  0  0  0
   24.2333   -5.9022    0.0000 C   0  0  0  0  0  0  0  0  0  0  0  0
   24.2333   -4.5722    0.0000 C   0  0  0  0  0  0  0  0  0  0  0  0
   25.3851   -3.9072    0.0000 C   0  0  0  0  0  0  0  0  0  0  0  0
   25.3851   -6.5672    0.0000 C   0  0  0  0  0  0  0  0  0  0  0  0
   26.5369   -5.9022    0.0000 C   0  0  0  0  0  0  0  0  0  0  0  0
   26.5369   -4.5722    0.0000 C   0  0  0  0  0  0  0  0  0  0  0  0
   27.6887   -3.9072    0.0000 C   0  0  0  0  0  0  0  0  0  0  0  0
  1  2  2  0  0  0  0
  2  3  1  0  0  0  0
  3  4  1  0  0  0  0
  4  5  1  0  0  0  0
  5  6  1  0  0  0  0
  6  7  1  0  0  0  0
  7  8  1  0  0  0  0
  8  9  1  0  0  0  0
  9 10  1  0  0  0  0
 10 11  1  0  0  0  0
 12 13  1  0  0  0  0
 10 12  1  0  0  0  0
 14 15  1  0  0  0  0
  8 14  1  0  0  0  0
 16 17  1  0  0  0  0
  6 16  1  0  0  0  0
 18 19  1  0  0  0  0
  4 18  1  0  0  0  0
 20 21  1  0  0  0  0
  2 20  1  0  0  0  0
 11 22  1  0  0  0  0
 22 23  1  0  0  0  0
 23 24  1  0  0  0  0
 22 25  1  0  0  0  0
 25 26  1  0  0  0  0
 26 27  1  0  0  0  0
 27 28  1  0  0  0  0
 26 29  1  0  0  0  0
 29 30  1  0  0  0  0
 30 31  1  0  0  0  0
 31 32  1  0  0  0  0
M  END
>  <NAME>
2,4,6,8,10,12,14-Heptaethyl-1-octadecene

>  <INCHIKEY>
UYHDONKLDOYNPS-UHFFFAOYSA-N

>  <POLYMER>
iso-PB (28)

>  <RETENTION INDEX>
SemiStdNP=2475.4

>  <FORMULA>
C32H64

>  <MW>
448

>  <EXACT MASS>
448.500803

>  <ID>
140

>  <COMMENT>
stereochemistry unknown

>  <NUM PEAKS>
80

>  <MASS SPECTRAL PEAKS>
27 12
29 46
33 5
39 10
41 162
42 19
43 317
44 12
45 3
53 10
54 9
55 377
56 50
57 999
58 43
62 3
65 5
67 36
68 9
69 367
70 130
71 555
72 33
75 4
79 8
81 42
82 11
83 290
84 35
85 386
86 29
90 4
95 45
96 25
97 568
98 113
99 174
100 11
109 17
110 26
111 288
112 141
113 159
114 12
123 14
124 7
125 146
126 25
127 81
128 3
137 11
138 3
139 100
140 12
141 58
151 6
152 13
153 158
154 59
155 56
165 4
166 3
167 44
168 26
169 47
172 5
181 49
182 11
183 14
186 3
195 15
196 5
197 7
209 25
210 7
211 9
223 4
237 13
262 3
425 5

$$$$
2,4,6,8,10,12,14-HEPTAETHYL-1,14-PENTADECADIENE
  ACD/LABS04122416033D
Library ID = 141
 29 28  0  0  0  0  0  0  0  0  1 V2000
    9.2597   -6.5672    0.0000 C   0  0  0  0  0  0  0  0  0  0  0  0
   10.4115   -5.9022    0.0000 C   0  0  0  0  0  0  0  0  0  0  0  0
   11.5633   -6.5672    0.0000 C   0  0  0  0  0  0  0  0  0  0  0  0
   12.7151   -5.9022    0.0000 C   0  0  0  0  0  0  0  0  0  0  0  0
   13.8669   -6.5672    0.0000 C   0  0  0  0  0  0  0  0  0  0  0  0
   15.0188   -5.9022    0.0000 C   0  0  0  0  0  0  0  0  0  0  0  0
   16.1706   -6.5672    0.0000 C   0  0  0  0  0  0  0  0  0  0  0  0
   17.3224   -5.9022    0.0000 C   0  0  0  0  0  0  0  0  0  0  0  0
   18.4742   -6.5672    0.0000 C   0  0  0  0  0  0  0  0  0  0  0  0
   19.6260   -5.9022    0.0000 C   0  0  0  0  0  0  0  0  0  0  0  0
   20.7778   -6.5672    0.0000 C   0  0  0  0  0  0  0  0  0  0  0  0
   19.6260   -4.5722    0.0000 C   0  0  0  0  0  0  0  0  0  0  0  0
   20.7778   -3.9072    0.0000 C   0  0  0  0  0  0  0  0  0  0  0  0
   17.3224   -4.5722    0.0000 C   0  0  0  0  0  0  0  0  0  0  0  0
   18.4742   -3.9072    0.0000 C   0  0  0  0  0  0  0  0  0  0  0  0
   15.0188   -4.5722    0.0000 C   0  0  0  0  0  0  0  0  0  0  0  0
   16.1706   -3.9072    0.0000 C   0  0  0  0  0  0  0  0  0  0  0  0
   12.7151   -4.5722    0.0000 C   0  0  0  0  0  0  0  0  0  0  0  0
   13.8669   -3.9072    0.0000 C   0  0  0  0  0  0  0  0  0  0  0  0
   10.4115   -4.5722    0.0000 C   0  0  0  0  0  0  0  0  0  0  0  0
   11.5633   -3.9072    0.0000 C   0  0  0  0  0  0  0  0  0  0  0  0
   21.9296   -5.9022    0.0000 C   0  0  0  0  0  0  0  0  0  0  0  0
   21.9296   -4.5722    0.0000 C   0  0  0  0  0  0  0  0  0  0  0  0
   23.0814   -3.9072    0.0000 C   0  0  0  0  0  0  0  0  0  0  0  0
   23.0814   -6.5672    0.0000 C   0  0  0  0  0  0  0  0  0  0  0  0
   24.2333   -5.9022    0.0000 C   0  0  0  0  0  0  0  0  0  0  0  0
   24.2333   -4.5722    0.0000 C   0  0  0  0  0  0  0  0  0  0  0  0
   25.3851   -3.9072    0.0000 C   0  0  0  0  0  0  0  0  0  0  0  0
   25.3851   -6.5672    0.0000 C   0  0  0  0  0  0  0  0  0  0  0  0
  1  2  2  0  0  0  0
  2  3  1  0  0  0  0
  3  4  1  0  0  0  0
  4  5  1  0  0  0  0
  5  6  1  0  0  0  0
  6  7  1  0  0  0  0
  7  8  1  0  0  0  0
  8  9  1  0  0  0  0
  9 10  1  0  0  0  0
 10 11  1  0  0  0  0
 12 13  1  0  0  0  0
 10 12  1  0  0  0  0
 14 15  1  0  0  0  0
  8 14  1  0  0  0  0
 16 17  1  0  0  0  0
  6 16  1  0  0  0  0
 18 19  1  0  0  0  0
  4 18  1  0  0  0  0
 20 21  1  0  0  0  0
  2 20  1  0  0  0  0
 11 22  1  0  0  0  0
 22 23  1  0  0  0  0
 23 24  1  0  0  0  0
 22 25  1  0  0  0  0
 25 26  1  0  0  0  0
 26 27  1  0  0  0  0
 27 28  1  0  0  0  0
 26 29  2  0  0  0  0
M  END
>  <NAME>
2,4,6,8,10,12,14-Heptaethyl-1,14-pentadecadiene

>  <INCHIKEY>
FZRSVCYYNWBSAM-UHFFFAOYSA-N

>  <POLYMER>
iso-PB (28)

>  <RETENTION INDEX>
SemiStdNP=2281.8

>  <FORMULA>
C29H56

>  <MW>
404

>  <EXACT MASS>
404.438202

>  <ID>
141

>  <COMMENT>
stereochemistry unknown

>  <NUM PEAKS>
83

>  <MASS SPECTRAL PEAKS>
27 14
29 51
39 28
41 295
42 25
43 242
44 7
47 4
48 7
50 4
53 29
54 11
55 830
56 75
57 497
58 24
65 3
67 80
68 21
69 814
70 119
71 266
72 15
75 9
77 11
79 19
81 106
82 17
83 562
84 51
85 154
86 10
91 8
93 9
95 124
96 164
97 999
98 85
99 50
109 85
110 240
111 656
112 79
113 23
122 4
123 165
124 100
125 137
126 10
127 7
137 154
138 24
139 68
140 9
151 174
152 66
153 81
154 8
157 5
159 3
165 110
166 40
167 42
168 4
170 5
173 4
179 62
180 13
181 4
182 2
193 95
194 10
207 31
215 3
221 14
222 12
225 2
235 18
242 4
249 8
267 3
305 10
375 11

$$$$
2,4,6,8,10,12-HEXAETHYL-1-HEXADECENE
  ACD/LABS04122415593D
Library ID = 142
 28 27  0  0  0  0  0  0  0  0  1 V2000
    9.2597   -6.5672    0.0000 C   0  0  0  0  0  0  0  0  0  0  0  0
   10.4115   -5.9022    0.0000 C   0  0  0  0  0  0  0  0  0  0  0  0
   11.5633   -6.5672    0.0000 C   0  0  0  0  0  0  0  0  0  0  0  0
   12.7151   -5.9022    0.0000 C   0  0  0  0  0  0  0  0  0  0  0  0
   13.8669   -6.5672    0.0000 C   0  0  0  0  0  0  0  0  0  0  0  0
   15.0188   -5.9022    0.0000 C   0  0  0  0  0  0  0  0  0  0  0  0
   16.1706   -6.5672    0.0000 C   0  0  0  0  0  0  0  0  0  0  0  0
   17.3224   -5.9022    0.0000 C   0  0  0  0  0  0  0  0  0  0  0  0
   18.4742   -6.5672    0.0000 C   0  0  0  0  0  0  0  0  0  0  0  0
   19.6260   -5.9022    0.0000 C   0  0  0  0  0  0  0  0  0  0  0  0
   20.7778   -6.5672    0.0000 C   0  0  0  0  0  0  0  0  0  0  0  0
   19.6260   -4.5722    0.0000 C   0  0  0  0  0  0  0  0  0  0  0  0
   20.7778   -3.9072    0.0000 C   0  0  0  0  0  0  0  0  0  0  0  0
   17.3224   -4.5722    0.0000 C   0  0  0  0  0  0  0  0  0  0  0  0
   18.4742   -3.9072    0.0000 C   0  0  0  0  0  0  0  0  0  0  0  0
   15.0188   -4.5722    0.0000 C   0  0  0  0  0  0  0  0  0  0  0  0
   16.1706   -3.9072    0.0000 C   0  0  0  0  0  0  0  0  0  0  0  0
   12.7151   -4.5722    0.0000 C   0  0  0  0  0  0  0  0  0  0  0  0
   13.8669   -3.9072    0.0000 C   0  0  0  0  0  0  0  0  0  0  0  0
   10.4115   -4.5722    0.0000 C   0  0  0  0  0  0  0  0  0  0  0  0
   11.5633   -3.9072    0.0000 C   0  0  0  0  0  0  0  0  0  0  0  0
   21.9296   -5.9022    0.0000 C   0  0  0  0  0  0  0  0  0  0  0  0
   21.9296   -4.5722    0.0000 C   0  0  0  0  0  0  0  0  0  0  0  0
   23.0814   -3.9072    0.0000 C   0  0  0  0  0  0  0  0  0  0  0  0
   23.0814   -6.5672    0.0000 C   0  0  0  0  0  0  0  0  0  0  0  0
   24.2333   -5.9022    0.0000 C   0  0  0  0  0  0  0  0  0  0  0  0
   24.2333   -4.5722    0.0000 C   0  0  0  0  0  0  0  0  0  0  0  0
   25.3851   -3.9072    0.0000 C   0  0  0  0  0  0  0  0  0  0  0  0
  1  2  2  0  0  0  0
  2  3  1  0  0  0  0
  3  4  1  0  0  0  0
  4  5  1  0  0  0  0
  5  6  1  0  0  0  0
  6  7  1  0  0  0  0
  7  8  1  0  0  0  0
  8  9  1  0  0  0  0
  9 10  1  0  0  0  0
 10 11  1  0  0  0  0
 12 13  1  0  0  0  0
 10 12  1  0  0  0  0
 14 15  1  0  0  0  0
  8 14  1  0  0  0  0
 16 17  1  0  0  0  0
  6 16  1  0  0  0  0
 18 19  1  0  0  0  0
  4 18  1  0  0  0  0
 20 21  1  0  0  0  0
  2 20  1  0  0  0  0
 11 22  1  0  0  0  0
 22 23  1  0  0  0  0
 23 24  1  0  0  0  0
 22 25  1  0  0  0  0
 25 26  1  0  0  0  0
 26 27  1  0  0  0  0
 27 28  1  0  0  0  0
M  END
>  <NAME>
2,4,6,8,10,12-Hexaethyl-1-hexadecene

>  <INCHIKEY>
WZXPIUJNEYDRAZ-UHFFFAOYSA-N

>  <POLYMER>
iso-PB (28)

>  <RETENTION INDEX>
SemiStdNP=2215.7

>  <FORMULA>
C28H56

>  <MW>
392

>  <EXACT MASS>
392.438202

>  <ID>
142

>  <COMMENT>
stereochemistry unknown

>  <NUM PEAKS>
77

>  <MASS SPECTRAL PEAKS>
27 10
29 51
39 14
41 198
42 16
43 319
44 14
46 2
47 3
54 7
55 406
56 60
57 999
58 47
67 45
68 12
69 384
70 133
71 553
72 34
75 3
77 5
79 10
81 49
82 12
83 299
84 39
85 360
86 26
95 42
96 27
97 561
98 121
99 146
100 13
109 19
110 24
111 289
112 158
113 149
114 13
123 20
124 4
125 133
126 22
127 61
128 5
137 11
138 2
139 79
140 12
141 40
142 3
151 5
152 12
153 138
154 71
155 39
162 3
165 6
167 40
168 16
169 34
179 4
180 3
181 47
182 6
183 8
190 3
193 2
195 26
196 7
208 1
209 21
210 8
234 2
293 5

$$$$
2,4,6,8,10,12-HEXAETHYL-1,12-TRIDECADIENE
  ACD/LABS04122415563D
Library ID = 143
 25 24  0  0  0  0  0  0  0  0  1 V2000
    9.2597   -6.5672    0.0000 C   0  0  0  0  0  0  0  0  0  0  0  0
   10.4115   -5.9022    0.0000 C   0  0  0  0  0  0  0  0  0  0  0  0
   11.5633   -6.5672    0.0000 C   0  0  0  0  0  0  0  0  0  0  0  0
   12.7151   -5.9022    0.0000 C   0  0  0  0  0  0  0  0  0  0  0  0
   13.8669   -6.5672    0.0000 C   0  0  0  0  0  0  0  0  0  0  0  0
   15.0188   -5.9022    0.0000 C   0  0  0  0  0  0  0  0  0  0  0  0
   16.1706   -6.5672    0.0000 C   0  0  0  0  0  0  0  0  0  0  0  0
   17.3224   -5.9022    0.0000 C   0  0  0  0  0  0  0  0  0  0  0  0
   18.4742   -6.5672    0.0000 C   0  0  0  0  0  0  0  0  0  0  0  0
   19.6260   -5.9022    0.0000 C   0  0  0  0  0  0  0  0  0  0  0  0
   20.7778   -6.5672    0.0000 C   0  0  0  0  0  0  0  0  0  0  0  0
   19.6260   -4.5722    0.0000 C   0  0  0  0  0  0  0  0  0  0  0  0
   20.7778   -3.9072    0.0000 C   0  0  0  0  0  0  0  0  0  0  0  0
   17.3224   -4.5722    0.0000 C   0  0  0  0  0  0  0  0  0  0  0  0
   18.4742   -3.9072    0.0000 C   0  0  0  0  0  0  0  0  0  0  0  0
   15.0188   -4.5722    0.0000 C   0  0  0  0  0  0  0  0  0  0  0  0
   16.1706   -3.9072    0.0000 C   0  0  0  0  0  0  0  0  0  0  0  0
   12.7151   -4.5722    0.0000 C   0  0  0  0  0  0  0  0  0  0  0  0
   13.8669   -3.9072    0.0000 C   0  0  0  0  0  0  0  0  0  0  0  0
   10.4115   -4.5722    0.0000 C   0  0  0  0  0  0  0  0  0  0  0  0
   11.5633   -3.9072    0.0000 C   0  0  0  0  0  0  0  0  0  0  0  0
   21.9296   -5.9022    0.0000 C   0  0  0  0  0  0  0  0  0  0  0  0
   21.9296   -4.5722    0.0000 C   0  0  0  0  0  0  0  0  0  0  0  0
   23.0814   -3.9072    0.0000 C   0  0  0  0  0  0  0  0  0  0  0  0
   23.0814   -6.5672    0.0000 C   0  0  0  0  0  0  0  0  0  0  0  0
  1  2  2  0  0  0  0
  2  3  1  0  0  0  0
  3  4  1  0  0  0  0
  4  5  1  0  0  0  0
  5  6  1  0  0  0  0
  6  7  1  0  0  0  0
  7  8  1  0  0  0  0
  8  9  1  0  0  0  0
  9 10  1  0  0  0  0
 10 11  1  0  0  0  0
 12 13  1  0  0  0  0
 10 12  1  0  0  0  0
 14 15  1  0  0  0  0
  8 14  1  0  0  0  0
 16 17  1  0  0  0  0
  6 16  1  0  0  0  0
 18 19  1  0  0  0  0
  4 18  1  0  0  0  0
 20 21  1  0  0  0  0
  2 20  1  0  0  0  0
 11 22  1  0  0  0  0
 22 23  1  0  0  0  0
 23 24  1  0  0  0  0
 22 25  2  0  0  0  0
M  END
>  <NAME>
2,4,6,8,10,12-Hexaethyl-1,12-tridecadiene

>  <INCHIKEY>
WOSKRHLDZIHDMT-UHFFFAOYSA-N

>  <POLYMER>
iso-PB (28)

>  <RETENTION INDEX>
SemiStdNP=2017.5

>  <FORMULA>
C25H48

>  <MW>
348

>  <EXACT MASS>
348.3756

>  <ID>
143

>  <COMMENT>
stereochemistry unknown

>  <NUM PEAKS>
72

>  <MASS SPECTRAL PEAKS>
27 28
29 84
39 29
41 437
42 36
43 271
53 43
54 12
55 999
56 84
57 440
58 18
60 5
65 8
67 103
68 31
69 985
70 126
71 225
72 11
77 9
79 30
81 152
82 17
83 559
84 45
85 116
87 7
91 13
92 6
93 10
94 3
95 170
96 267
97 885
98 68
99 25
104 3
106 2
107 6
109 120
110 262
111 614
112 68
113 7
123 205
124 157
125 116
126 9
137 239
138 30
139 42
142 3
151 204
152 54
153 44
165 139
166 46
167 34
179 119
180 20
193 56
194 3
207 36
208 7
213 6
221 15
249 28
250 3
277 6
294 6
319 15

$$$$
2,4,6,8,10-PENTAETHYL-1-TETRADECENE
  ACD/LABS04122415533D
Library ID = 144
 24 23  0  0  0  0  0  0  0  0  1 V2000
    9.2597   -6.5672    0.0000 C   0  0  0  0  0  0  0  0  0  0  0  0
   10.4115   -5.9022    0.0000 C   0  0  0  0  0  0  0  0  0  0  0  0
   11.5633   -6.5672    0.0000 C   0  0  0  0  0  0  0  0  0  0  0  0
   12.7151   -5.9022    0.0000 C   0  0  0  0  0  0  0  0  0  0  0  0
   13.8669   -6.5672    0.0000 C   0  0  0  0  0  0  0  0  0  0  0  0
   15.0188   -5.9022    0.0000 C   0  0  0  0  0  0  0  0  0  0  0  0
   16.1706   -6.5672    0.0000 C   0  0  0  0  0  0  0  0  0  0  0  0
   17.3224   -5.9022    0.0000 C   0  0  0  0  0  0  0  0  0  0  0  0
   18.4742   -6.5672    0.0000 C   0  0  0  0  0  0  0  0  0  0  0  0
   19.6260   -5.9022    0.0000 C   0  0  0  0  0  0  0  0  0  0  0  0
   20.7778   -6.5672    0.0000 C   0  0  0  0  0  0  0  0  0  0  0  0
   19.6260   -4.5722    0.0000 C   0  0  0  0  0  0  0  0  0  0  0  0
   20.7778   -3.9072    0.0000 C   0  0  0  0  0  0  0  0  0  0  0  0
   17.3224   -4.5722    0.0000 C   0  0  0  0  0  0  0  0  0  0  0  0
   18.4742   -3.9072    0.0000 C   0  0  0  0  0  0  0  0  0  0  0  0
   15.0188   -4.5722    0.0000 C   0  0  0  0  0  0  0  0  0  0  0  0
   16.1706   -3.9072    0.0000 C   0  0  0  0  0  0  0  0  0  0  0  0
   12.7151   -4.5722    0.0000 C   0  0  0  0  0  0  0  0  0  0  0  0
   13.8669   -3.9072    0.0000 C   0  0  0  0  0  0  0  0  0  0  0  0
   10.4115   -4.5722    0.0000 C   0  0  0  0  0  0  0  0  0  0  0  0
   11.5633   -3.9072    0.0000 C   0  0  0  0  0  0  0  0  0  0  0  0
   21.9296   -5.9022    0.0000 C   0  0  0  0  0  0  0  0  0  0  0  0
   21.9296   -4.5722    0.0000 C   0  0  0  0  0  0  0  0  0  0  0  0
   23.0814   -3.9072    0.0000 C   0  0  0  0  0  0  0  0  0  0  0  0
  1  2  2  0  0  0  0
  2  3  1  0  0  0  0
  3  4  1  0  0  0  0
  4  5  1  0  0  0  0
  5  6  1  0  0  0  0
  6  7  1  0  0  0  0
  7  8  1  0  0  0  0
  8  9  1  0  0  0  0
  9 10  1  0  0  0  0
 10 11  1  0  0  0  0
 12 13  1  0  0  0  0
 10 12  1  0  0  0  0
 14 15  1  0  0  0  0
  8 14  1  0  0  0  0
 16 17  1  0  0  0  0
  6 16  1  0  0  0  0
 18 19  1  0  0  0  0
  4 18  1  0  0  0  0
 20 21  1  0  0  0  0
  2 20  1  0  0  0  0
 11 22  1  0  0  0  0
 22 23  1  0  0  0  0
 23 24  1  0  0  0  0
M  END
>  <NAME>
2,4,6,8,10-Pentaethyl-1-tetradecene

>  <INCHIKEY>
SIUUUFORFAHWSG-UHFFFAOYSA-N

>  <POLYMER>
iso-PB (28)

>  <RETENTION INDEX>
SemiStdNP=1954.1

>  <FORMULA>
C24H48

>  <MW>
336

>  <EXACT MASS>
336.3756

>  <ID>
144

>  <COMMENT>
stereochemistry unknown

>  <NUM PEAKS>
80

>  <MASS SPECTRAL PEAKS>
26 2
27 16
29 62
37 2
39 20
40 5
41 253
42 27
43 345
44 10
47 3
52 3
53 22
54 11
55 442
56 65
57 999
58 47
65 5
67 49
68 14
69 388
70 179
71 515
72 32
77 6
79 12
80 3
81 45
82 17
83 311
84 43
85 325
86 22
91 3
93 5
95 38
96 32
97 515
98 161
99 116
100 9
109 14
110 23
111 265
112 142
113 108
114 12
116 2
117 3
123 12
125 156
126 24
127 39
137 8
138 5
139 76
140 9
141 22
151 4
152 9
153 133
154 62
155 19
165 3
167 24
168 20
169 32
179 2
181 15
182 5
183 5
195 11
209 12
223 1
232 1
237 18
238 2
268 2
312 2

$$$$
2,4,6,8,10-PENTAETHYL-1,10-UNDECADIENE
  ACD/LABS04122415353D
Library ID = 145
 21 20  0  0  0  0  0  0  0  0  1 V2000
    9.2597   -6.5672    0.0000 C   0  0  0  0  0  0  0  0  0  0  0  0
   10.4115   -5.9022    0.0000 C   0  0  0  0  0  0  0  0  0  0  0  0
   11.5633   -6.5672    0.0000 C   0  0  0  0  0  0  0  0  0  0  0  0
   12.7151   -5.9022    0.0000 C   0  0  0  0  0  0  0  0  0  0  0  0
   13.8669   -6.5672    0.0000 C   0  0  0  0  0  0  0  0  0  0  0  0
   15.0188   -5.9022    0.0000 C   0  0  0  0  0  0  0  0  0  0  0  0
   16.1706   -6.5672    0.0000 C   0  0  0  0  0  0  0  0  0  0  0  0
   17.3224   -5.9022    0.0000 C   0  0  0  0  0  0  0  0  0  0  0  0
   18.4742   -6.5672    0.0000 C   0  0  0  0  0  0  0  0  0  0  0  0
   19.6260   -5.9022    0.0000 C   0  0  0  0  0  0  0  0  0  0  0  0
   20.7778   -6.5672    0.0000 C   0  0  0  0  0  0  0  0  0  0  0  0
   19.6260   -4.5722    0.0000 C   0  0  0  0  0  0  0  0  0  0  0  0
   20.7778   -3.9072    0.0000 C   0  0  0  0  0  0  0  0  0  0  0  0
   17.3224   -4.5722    0.0000 C   0  0  0  0  0  0  0  0  0  0  0  0
   18.4742   -3.9072    0.0000 C   0  0  0  0  0  0  0  0  0  0  0  0
   15.0188   -4.5722    0.0000 C   0  0  0  0  0  0  0  0  0  0  0  0
   16.1706   -3.9072    0.0000 C   0  0  0  0  0  0  0  0  0  0  0  0
   12.7151   -4.5722    0.0000 C   0  0  0  0  0  0  0  0  0  0  0  0
   13.8669   -3.9072    0.0000 C   0  0  0  0  0  0  0  0  0  0  0  0
   10.4115   -4.5722    0.0000 C   0  0  0  0  0  0  0  0  0  0  0  0
   11.5633   -3.9072    0.0000 C   0  0  0  0  0  0  0  0  0  0  0  0
  1  2  2  0  0  0  0
  2  3  1  0  0  0  0
  3  4  1  0  0  0  0
  4  5  1  0  0  0  0
  5  6  1  0  0  0  0
  6  7  1  0  0  0  0
  7  8  1  0  0  0  0
  8  9  1  0  0  0  0
  9 10  1  0  0  0  0
 10 11  2  0  0  0  0
 12 13  1  0  0  0  0
 10 12  1  0  0  0  0
 14 15  1  0  0  0  0
  8 14  1  0  0  0  0
 16 17  1  0  0  0  0
  6 16  1  0  0  0  0
 18 19  1  0  0  0  0
  4 18  1  0  0  0  0
 20 21  1  0  0  0  0
  2 20  1  0  0  0  0
M  END
>  <NAME>
2,4,6,8,10-Pentaethyl-1,10-undecadiene

>  <INCHIKEY>
XLLZAWXOHDHYQU-UHFFFAOYSA-N

>  <POLYMER>
iso-PB (28)

>  <RETENTION INDEX>
SemiStdNP=1749.3

>  <FORMULA>
C21H40

>  <MW>
292

>  <EXACT MASS>
292.313002

>  <ID>
145

>  <COMMENT>
stereochemistry unknown

>  <NUM PEAKS>
69

>  <MASS SPECTRAL PEAKS>
27 26
29 102
39 50
40 6
41 517
42 28
43 239
53 56
54 17
55 999
56 78
57 314
58 15
64 7
65 25
67 123
68 56
69 989
70 98
71 133
72 5
77 17
79 37
81 217
82 35
83 461
84 43
85 58
88 4
89 4
90 7
91 14
93 23
95 261
96 121
97 597
98 48
99 11
100 8
109 146
110 490
111 505
112 36
113 8
121 6
123 310
124 109
125 57
137 191
138 24
139 19
141 4
147 5
151 187
152 65
153 20
165 120
166 28
167 11
179 29
180 6
182 8
187 7
193 171
194 26
253 3
262 6
263 19
279 7

$$$$
2,4,6,8-TETRAETHYL-10-METHYL-1-DODECENE
  ACD/LABS04122415243D
Library ID = 146
 21 20  0  0  0  0  0  0  0  0  1 V2000
    8.2124   -5.1709    0.0000 C   0  0  0  0  0  0  0  0  0  0  0  0
    9.3643   -4.5059    0.0000 C   0  0  0  0  0  0  0  0  0  0  0  0
   10.5161   -5.1709    0.0000 C   0  0  0  0  0  0  0  0  0  0  0  0
   11.6679   -4.5059    0.0000 C   0  0  0  0  0  0  0  0  0  0  0  0
   12.8197   -5.1709    0.0000 C   0  0  0  0  0  0  0  0  0  0  0  0
   13.9715   -4.5059    0.0000 C   0  0  0  0  0  0  0  0  0  0  0  0
   15.1233   -5.1709    0.0000 C   0  0  0  0  0  0  0  0  0  0  0  0
   16.2751   -4.5059    0.0000 C   0  0  0  0  0  0  0  0  0  0  0  0
   17.4270   -5.1709    0.0000 C   0  0  0  0  0  0  0  0  0  0  0  0
   18.5788   -4.5059    0.0000 C   0  0  0  0  0  0  0  0  0  0  0  0
   18.5788   -3.1759    0.0000 C   0  0  0  0  0  0  0  0  0  0  0  0
   19.7306   -2.5109    0.0000 C   0  0  0  0  0  0  0  0  0  0  0  0
   19.7306   -5.1709    0.0000 C   0  0  0  0  0  0  0  0  0  0  0  0
   16.2751   -3.1759    0.0000 C   0  0  0  0  0  0  0  0  0  0  0  0
   17.4270   -2.5109    0.0000 C   0  0  0  0  0  0  0  0  0  0  0  0
   13.9715   -3.1759    0.0000 C   0  0  0  0  0  0  0  0  0  0  0  0
   15.1233   -2.5109    0.0000 C   0  0  0  0  0  0  0  0  0  0  0  0
   11.6679   -3.1759    0.0000 C   0  0  0  0  0  0  0  0  0  0  0  0
   12.8197   -2.5109    0.0000 C   0  0  0  0  0  0  0  0  0  0  0  0
    9.3643   -3.1759    0.0000 C   0  0  0  0  0  0  0  0  0  0  0  0
   10.5161   -2.5109    0.0000 C   0  0  0  0  0  0  0  0  0  0  0  0
  1  2  2  0  0  0  0
  2  3  1  0  0  0  0
  3  4  1  0  0  0  0
  4  5  1  0  0  0  0
  5  6  1  0  0  0  0
  6  7  1  0  0  0  0
  7  8  1  0  0  0  0
  8  9  1  0  0  0  0
  9 10  1  0  0  0  0
 10 11  1  0  0  0  0
 11 12  1  0  0  0  0
 10 13  1  0  0  0  0
 14 15  1  0  0  0  0
  8 14  1  0  0  0  0
 16 17  1  0  0  0  0
  6 16  1  0  0  0  0
 18 19  1  0  0  0  0
  4 18  1  0  0  0  0
 20 21  1  0  0  0  0
  2 20  1  0  0  0  0
M  END
>  <NAME>
2,4,6,8-Tetraethyl-10-methyl-1-dodecene

>  <INCHIKEY>
REYACITYMBBDCE-UHFFFAOYSA-N

>  <POLYMER>
iso-PB (28)

>  <RETENTION INDEX>
SemiStdNP=1731.8

>  <FORMULA>
C21H42

>  <MW>
294

>  <EXACT MASS>
294.328651

>  <ID>
146

>  <COMMENT>
stereochemistry unknown

>  <NUM PEAKS>
54

>  <MASS SPECTRAL PEAKS>
24 5
27 12
29 108
39 28
41 323
42 22
43 370
44 9
45 7
47 7
48 4
53 19
54 14
55 444
56 80
57 999
58 43
67 56
68 10
69 396
70 223
71 727
72 43
73 5
79 16
81 46
82 14
83 375
84 58
85 302
86 17
95 44
96 21
97 459
98 98
99 97
100 6
109 10
110 22
111 305
112 147
113 83
118 3
125 126
126 67
127 75
139 62
141 7
153 68
154 14
167 28
168 10
195 33
196 7

$$$$
2,4,6,8-TETRAETHYL-1-DODECENE (ISOMER 2)
  ACD/LABS04122415053D
Library ID = 147
 20 19  0  0  0  0  0  0  0  0  1 V2000
    8.5615   -5.8691    0.0000 C   0  0  0  0  0  0  0  0  0  0  0  0
    9.7133   -5.2041    0.0000 C   0  0  0  0  0  0  0  0  0  0  0  0
   10.8652   -5.8691    0.0000 C   0  0  0  0  0  0  0  0  0  0  0  0
   12.0170   -5.2041    0.0000 C   0  0  0  0  0  0  0  0  0  0  0  0
   13.1688   -5.8691    0.0000 C   0  0  0  0  0  0  0  0  0  0  0  0
   14.3206   -5.2041    0.0000 C   0  0  0  0  0  0  0  0  0  0  0  0
   15.4724   -5.8691    0.0000 C   0  0  0  0  0  0  0  0  0  0  0  0
   16.6242   -5.2041    0.0000 C   0  0  0  0  0  0  0  0  0  0  0  0
   17.7760   -5.8691    0.0000 C   0  0  0  0  0  0  0  0  0  0  0  0
   18.9278   -5.2041    0.0000 C   0  0  0  0  0  0  0  0  0  0  0  0
   18.9278   -3.8741    0.0000 C   0  0  0  0  0  0  0  0  0  0  0  0
   20.0797   -3.2091    0.0000 C   0  0  0  0  0  0  0  0  0  0  0  0
   16.6242   -3.8741    0.0000 C   0  0  0  0  0  0  0  0  0  0  0  0
   17.7760   -3.2091    0.0000 C   0  0  0  0  0  0  0  0  0  0  0  0
   14.3206   -3.8741    0.0000 C   0  0  0  0  0  0  0  0  0  0  0  0
   15.4724   -3.2091    0.0000 C   0  0  0  0  0  0  0  0  0  0  0  0
   12.0170   -3.8741    0.0000 C   0  0  0  0  0  0  0  0  0  0  0  0
   13.1688   -3.2091    0.0000 C   0  0  0  0  0  0  0  0  0  0  0  0
    9.7133   -3.8741    0.0000 C   0  0  0  0  0  0  0  0  0  0  0  0
   10.8652   -3.2091    0.0000 C   0  0  0  0  0  0  0  0  0  0  0  0
  1  2  2  0  0  0  0
  2  3  1  0  0  0  0
  3  4  1  0  0  0  0
  4  5  1  0  0  0  0
  5  6  1  0  0  0  0
  6  7  1  0  0  0  0
  7  8  1  0  0  0  0
  8  9  1  0  0  0  0
  9 10  1  0  0  0  0
 10 11  1  0  0  0  0
 11 12  1  0  0  0  0
 13 14  1  0  0  0  0
  8 13  1  0  0  0  0
 15 16  1  0  0  0  0
  6 15  1  0  0  0  0
 17 18  1  0  0  0  0
  4 17  1  0  0  0  0
 19 20  1  0  0  0  0
  2 19  1  0  0  0  0
M  END
>  <NAME>
2,4,6,8-Tetraethyl-1-dodecene (isomer 2)

>  <INCHIKEY>
OKQSHLUCEFDJOW-UHFFFAOYSA-N

>  <POLYMER>
iso-PB (28)

>  <RETENTION INDEX>
SemiStdNP=1703.8

>  <FORMULA>
C20H40

>  <MW>
280

>  <EXACT MASS>
280.313002

>  <ID>
147

>  <COMMENT>
stereochemistry unknown

>  <NUM PEAKS>
66

>  <MASS SPECTRAL PEAKS>
19 4
26 2
27 27
29 89
39 26
41 296
42 26
43 344
44 9
51 2
53 33
54 14
55 405
56 74
57 999
58 46
65 7
67 51
68 14
69 373
70 193
71 461
72 27
77 6
79 15
81 39
82 14
83 301
84 49
85 218
86 19
95 32
96 25
97 392
98 168
99 66
109 7
110 14
111 200
112 178
113 134
114 10
116 2
123 7
124 3
125 70
126 8
127 15
137 4
139 49
140 5
141 4
151 5
152 4
153 104
154 22
155 5
167 12
168 7
169 5
181 69
182 11
209 3
210 10
251 5
253 3

$$$$
2,4,6-TRIETHYL-1-DECENE (ISOMER 2)
  ACD/LABS04122414443D
CAS rn = 121887307, Library ID = 148
 16 15  0  0  0  0  0  0  0  0  1 V2000
   10.4098   -5.2704    0.0000 C   0  0  0  0  0  0  0  0  0  0  0  0
   11.5616   -5.9354    0.0000 C   0  0  0  0  0  0  0  0  0  0  0  0
   12.7134   -5.2704    0.0000 C   0  0  0  0  0  0  0  0  0  0  0  0
   13.8652   -5.9354    0.0000 C   0  0  0  0  0  0  0  0  0  0  0  0
   15.0170   -5.2704    0.0000 C   0  0  0  0  0  0  0  0  0  0  0  0
   15.0171   -3.9404    0.0000 C   0  0  0  0  0  0  0  0  0  0  0  0
   16.1689   -3.2754    0.0000 C   0  0  0  0  0  0  0  0  0  0  0  0
   12.7134   -3.9404    0.0000 C   0  0  0  0  0  0  0  0  0  0  0  0
   13.8652   -3.2754    0.0000 C   0  0  0  0  0  0  0  0  0  0  0  0
   10.4098   -3.9404    0.0000 C   0  0  0  0  0  0  0  0  0  0  0  0
   11.5616   -3.2754    0.0000 C   0  0  0  0  0  0  0  0  0  0  0  0
    9.2580   -5.9354    0.0000 C   0  0  0  0  0  0  0  0  0  0  0  0
   16.1689   -5.9354    0.0000 C   0  0  0  0  0  0  0  0  0  0  0  0
   17.3207   -5.2704    0.0000 C   0  0  0  0  0  0  0  0  0  0  0  0
   17.3207   -3.9404    0.0000 C   0  0  0  0  0  0  0  0  0  0  0  0
   18.4725   -3.2754    0.0000 C   0  0  0  0  0  0  0  0  0  0  0  0
  1  2  1  0  0  0  0
  2  3  1  0  0  0  0
  3  4  1  0  0  0  0
  4  5  1  0  0  0  0
  5  6  1  0  0  0  0
  6  7  1  0  0  0  0
  8  9  1  0  0  0  0
  3  8  1  0  0  0  0
 10 11  1  0  0  0  0
  1 10  1  0  0  0  0
  1 12  2  0  0  0  0
  5 13  1  0  0  0  0
 13 14  1  0  0  0  0
 14 15  1  0  0  0  0
 15 16  1  0  0  0  0
M  END
>  <NAME>
2,4,6-Triethyl-1-decene (isomer 2)

>  <INCHIKEY>
GWJZLVULPAIBSS-UHFFFAOYSA-N

>  <POLYMER>
iso-PB (28)

>  <RETENTION INDEX>
SemiStdNP=1413.5

>  <FORMULA>
C16H32

>  <MW>
224

>  <EXACT MASS>
224.2504015

>  <CASNO>
121887307

>  <ID>
148

>  <COMMENT>
stereochemistry unknown

>  <NUM PEAKS>
53

>  <MASS SPECTRAL PEAKS>
27 45
29 127
36 5
37 5
39 50
40 5
41 339
42 33
43 434
44 14
48 5
53 32
54 23
55 332
56 98
57 999
58 44
65 8
67 43
68 7
69 416
70 270
71 366
72 21
77 11
79 19
82 16
83 320
84 71
85 151
86 11
91 7
93 2
97 229
98 187
99 50
103 2
111 118
112 221
113 54
121 5
125 93
126 20
137 4
139 7
152 6
153 58
154 74
155 6
167 6
195 22
202 3
222 2

$$$$
2,4,6,8-TETRAETHYL-1-DODECENE (ISOMER1)
  ACD/LABS04122415053D
Library ID = 149
 20 19  0  0  0  0  0  0  0  0  1 V2000
    8.5615   -5.8691    0.0000 C   0  0  0  0  0  0  0  0  0  0  0  0
    9.7133   -5.2041    0.0000 C   0  0  0  0  0  0  0  0  0  0  0  0
   10.8652   -5.8691    0.0000 C   0  0  0  0  0  0  0  0  0  0  0  0
   12.0170   -5.2041    0.0000 C   0  0  0  0  0  0  0  0  0  0  0  0
   13.1688   -5.8691    0.0000 C   0  0  0  0  0  0  0  0  0  0  0  0
   14.3206   -5.2041    0.0000 C   0  0  0  0  0  0  0  0  0  0  0  0
   15.4724   -5.8691    0.0000 C   0  0  0  0  0  0  0  0  0  0  0  0
   16.6242   -5.2041    0.0000 C   0  0  0  0  0  0  0  0  0  0  0  0
   17.7760   -5.8691    0.0000 C   0  0  0  0  0  0  0  0  0  0  0  0
   18.9278   -5.2041    0.0000 C   0  0  0  0  0  0  0  0  0  0  0  0
   18.9278   -3.8741    0.0000 C   0  0  0  0  0  0  0  0  0  0  0  0
   20.0797   -3.2091    0.0000 C   0  0  0  0  0  0  0  0  0  0  0  0
   16.6242   -3.8741    0.0000 C   0  0  0  0  0  0  0  0  0  0  0  0
   17.7760   -3.2091    0.0000 C   0  0  0  0  0  0  0  0  0  0  0  0
   14.3206   -3.8741    0.0000 C   0  0  0  0  0  0  0  0  0  0  0  0
   15.4724   -3.2091    0.0000 C   0  0  0  0  0  0  0  0  0  0  0  0
   12.0170   -3.8741    0.0000 C   0  0  0  0  0  0  0  0  0  0  0  0
   13.1688   -3.2091    0.0000 C   0  0  0  0  0  0  0  0  0  0  0  0
    9.7133   -3.8741    0.0000 C   0  0  0  0  0  0  0  0  0  0  0  0
   10.8652   -3.2091    0.0000 C   0  0  0  0  0  0  0  0  0  0  0  0
  1  2  2  0  0  0  0
  2  3  1  0  0  0  0
  3  4  1  0  0  0  0
  4  5  1  0  0  0  0
  5  6  1  0  0  0  0
  6  7  1  0  0  0  0
  7  8  1  0  0  0  0
  8  9  1  0  0  0  0
  9 10  1  0  0  0  0
 10 11  1  0  0  0  0
 11 12  1  0  0  0  0
 13 14  1  0  0  0  0
  8 13  1  0  0  0  0
 15 16  1  0  0  0  0
  6 15  1  0  0  0  0
 17 18  1  0  0  0  0
  4 17  1  0  0  0  0
 19 20  1  0  0  0  0
  2 19  1  0  0  0  0
M  END
>  <NAME>
2,4,6,8-Tetraethyl-1-dodecene (isomer1)

>  <INCHIKEY>
OKQSHLUCEFDJOW-UHFFFAOYSA-N

>  <POLYMER>
iso-PB (28)

>  <RETENTION INDEX>
SemiStdNP=1686.8

>  <FORMULA>
C20H40

>  <MW>
280

>  <EXACT MASS>
280.313002

>  <ID>
149

>  <COMMENT>
stereochemistry unknown

>  <NUM PEAKS>
76

>  <MASS SPECTRAL PEAKS>
24 2
27 27
29 77
36 1
39 30
40 6
41 290
42 30
43 321
44 12
50 1
53 30
54 15
55 413
56 80
57 999
58 44
59 2
63 1
65 7
66 4
67 56
68 18
69 397
70 210
71 463
72 27
77 9
78 1
79 20
80 3
81 46
82 19
83 337
84 52
85 241
86 16
91 7
93 5
95 36
96 29
97 471
98 184
99 72
100 5
102 2
105 1
109 12
110 16
111 244
112 203
113 151
114 14
123 9
124 3
125 82
126 14
127 20
137 5
138 4
139 58
140 6
141 6
151 5
152 4
153 122
154 27
155 6
167 18
168 8
169 6
181 73
182 12
209 4
210 12
251 6

$$$$
2,4,6,8-TETRAETHYL-1,8-NONADIENE
  ACD/LABS04122414583D
Library ID = 150
 17 16  0  0  0  0  0  0  0  0  1 V2000
   10.3061   -6.2182    0.0000 C   0  0  0  0  0  0  0  0  0  0  0  0
   11.4579   -5.5532    0.0000 C   0  0  0  0  0  0  0  0  0  0  0  0
   12.6097   -6.2182    0.0000 C   0  0  0  0  0  0  0  0  0  0  0  0
   13.7615   -5.5532    0.0000 C   0  0  0  0  0  0  0  0  0  0  0  0
   14.9133   -6.2182    0.0000 C   0  0  0  0  0  0  0  0  0  0  0  0
   16.0651   -5.5532    0.0000 C   0  0  0  0  0  0  0  0  0  0  0  0
   17.2170   -6.2182    0.0000 C   0  0  0  0  0  0  0  0  0  0  0  0
   18.3688   -5.5532    0.0000 C   0  0  0  0  0  0  0  0  0  0  0  0
   18.3688   -4.2232    0.0000 C   0  0  0  0  0  0  0  0  0  0  0  0
   19.5206   -3.5582    0.0000 C   0  0  0  0  0  0  0  0  0  0  0  0
   19.5206   -6.2182    0.0000 C   0  0  0  0  0  0  0  0  0  0  0  0
   16.0651   -4.2232    0.0000 C   0  0  0  0  0  0  0  0  0  0  0  0
   17.2170   -3.5582    0.0000 C   0  0  0  0  0  0  0  0  0  0  0  0
   13.7615   -4.2232    0.0000 C   0  0  0  0  0  0  0  0  0  0  0  0
   14.9133   -3.5582    0.0000 C   0  0  0  0  0  0  0  0  0  0  0  0
   11.4579   -4.2232    0.0000 C   0  0  0  0  0  0  0  0  0  0  0  0
   12.6097   -3.5582    0.0000 C   0  0  0  0  0  0  0  0  0  0  0  0
  1  2  2  0  0  0  0
  2  3  1  0  0  0  0
  3  4  1  0  0  0  0
  4  5  1  0  0  0  0
  5  6  1  0  0  0  0
  6  7  1  0  0  0  0
  7  8  1  0  0  0  0
  8  9  1  0  0  0  0
  9 10  1  0  0  0  0
  8 11  2  0  0  0  0
 12 13  1  0  0  0  0
  6 12  1  0  0  0  0
 14 15  1  0  0  0  0
  4 14  1  0  0  0  0
 16 17  1  0  0  0  0
  2 16  1  0  0  0  0
M  END
>  <NAME>
2,4,6,8-Tetraethyl-1,8-nonadiene

>  <INCHIKEY>
FQHYDBCMWPQEJM-UHFFFAOYSA-N

>  <POLYMER>
iso-PB (28)

>  <RETENTION INDEX>
SemiStdNP=1472.6

>  <FORMULA>
C17H32

>  <MW>
236

>  <EXACT MASS>
236.2504015

>  <ID>
150

>  <NUM PEAKS>
58

>  <MASS SPECTRAL PEAKS>
14 8
21 9
27 44
29 99
35 11
39 75
40 20
41 473
42 25
43 156
50 7
53 60
54 23
55 999
56 62
57 126
62 7
64 5
65 13
67 136
68 47
69 691
70 60
71 70
72 13
77 22
79 46
81 250
82 30
83 236
84 19
85 14
91 8
93 11
95 284
96 157
97 476
98 38
101 6
105 7
109 134
110 136
111 212
112 18
123 136
124 153
125 30
127 4
137 328
138 39
151 41
165 77
166 13
172 6
179 13
207 77
227 6
233 7

$$$$
2,4,6-TRIETHYL-8-METHYL-1-DECENE
  ACD/LABS04122414493D
Library ID = 151
 17 16  0  0  0  0  0  0  0  0  1 V2000
   10.3061   -6.2182    0.0000 C   0  0  0  0  0  0  0  0  0  0  0  0
   11.4579   -5.5532    0.0000 C   0  0  0  0  0  0  0  0  0  0  0  0
   12.6097   -6.2182    0.0000 C   0  0  0  0  0  0  0  0  0  0  0  0
   13.7615   -5.5532    0.0000 C   0  0  0  0  0  0  0  0  0  0  0  0
   14.9133   -6.2182    0.0000 C   0  0  0  0  0  0  0  0  0  0  0  0
   16.0651   -5.5532    0.0000 C   0  0  0  0  0  0  0  0  0  0  0  0
   17.2170   -6.2182    0.0000 C   0  0  0  0  0  0  0  0  0  0  0  0
   18.3688   -5.5532    0.0000 C   0  0  0  0  0  0  0  0  0  0  0  0
   18.3688   -4.2232    0.0000 C   0  0  0  0  0  0  0  0  0  0  0  0
   19.5206   -3.5582    0.0000 C   0  0  0  0  0  0  0  0  0  0  0  0
   19.5206   -6.2182    0.0000 C   0  0  0  0  0  0  0  0  0  0  0  0
   16.0651   -4.2232    0.0000 C   0  0  0  0  0  0  0  0  0  0  0  0
   17.2170   -3.5582    0.0000 C   0  0  0  0  0  0  0  0  0  0  0  0
   13.7615   -4.2232    0.0000 C   0  0  0  0  0  0  0  0  0  0  0  0
   14.9133   -3.5582    0.0000 C   0  0  0  0  0  0  0  0  0  0  0  0
   11.4579   -4.2232    0.0000 C   0  0  0  0  0  0  0  0  0  0  0  0
   12.6097   -3.5582    0.0000 C   0  0  0  0  0  0  0  0  0  0  0  0
  1  2  2  0  0  0  0
  2  3  1  0  0  0  0
  3  4  1  0  0  0  0
  4  5  1  0  0  0  0
  5  6  1  0  0  0  0
  6  7  1  0  0  0  0
  7  8  1  0  0  0  0
  8  9  1  0  0  0  0
  9 10  1  0  0  0  0
  8 11  1  0  0  0  0
 12 13  1  0  0  0  0
  6 12  1  0  0  0  0
 14 15  1  0  0  0  0
  4 14  1  0  0  0  0
 16 17  1  0  0  0  0
  2 16  1  0  0  0  0
M  END
>  <NAME>
2,4,6-Triethyl-8-methyl-1-decene

>  <INCHIKEY>
OFABRXCZQAOVKY-UHFFFAOYSA-N

>  <POLYMER>
iso-PB (28)

>  <RETENTION INDEX>
SemiStdNP=1456.8

>  <FORMULA>
C17H34

>  <MW>
238

>  <EXACT MASS>
238.266051

>  <ID>
151

>  <NUM PEAKS>
64

>  <MASS SPECTRAL PEAKS>
14 19
23 11
26 8
27 54
29 143
34 8
39 49
40 7
41 384
42 33
43 389
44 10
49 7
53 36
54 9
55 478
56 101
57 999
58 48
65 3
67 62
68 13
69 397
70 332
71 673
72 42
77 16
79 19
81 48
82 19
83 452
84 68
85 173
86 10
91 10
93 8
95 33
96 43
97 379
98 156
99 36
108 4
109 10
110 8
111 223
112 119
113 47
116 3
125 36
126 26
127 25
132 3
137 6
139 106
140 11
148 6
150 6
153 9
167 16
168 27
204 3
209 18
228 2
232 3

$$$$
2,4,6-TRIETHYL-1-DECENE (ISOMER 1)
  ACD/LABS04122414443D
CAS rn = 121887307, Library ID = 152
 16 15  0  0  0  0  0  0  0  0  1 V2000
   10.4098   -5.2704    0.0000 C   0  0  0  0  0  0  0  0  0  0  0  0
   11.5616   -5.9354    0.0000 C   0  0  0  0  0  0  0  0  0  0  0  0
   12.7134   -5.2704    0.0000 C   0  0  0  0  0  0  0  0  0  0  0  0
   13.8652   -5.9354    0.0000 C   0  0  0  0  0  0  0  0  0  0  0  0
   15.0170   -5.2704    0.0000 C   0  0  0  0  0  0  0  0  0  0  0  0
   15.0171   -3.9404    0.0000 C   0  0  0  0  0  0  0  0  0  0  0  0
   16.1689   -3.2754    0.0000 C   0  0  0  0  0  0  0  0  0  0  0  0
   12.7134   -3.9404    0.0000 C   0  0  0  0  0  0  0  0  0  0  0  0
   13.8652   -3.2754    0.0000 C   0  0  0  0  0  0  0  0  0  0  0  0
   10.4098   -3.9404    0.0000 C   0  0  0  0  0  0  0  0  0  0  0  0
   11.5616   -3.2754    0.0000 C   0  0  0  0  0  0  0  0  0  0  0  0
    9.2580   -5.9354    0.0000 C   0  0  0  0  0  0  0  0  0  0  0  0
   16.1689   -5.9354    0.0000 C   0  0  0  0  0  0  0  0  0  0  0  0
   17.3207   -5.2704    0.0000 C   0  0  0  0  0  0  0  0  0  0  0  0
   17.3207   -3.9404    0.0000 C   0  0  0  0  0  0  0  0  0  0  0  0
   18.4725   -3.2754    0.0000 C   0  0  0  0  0  0  0  0  0  0  0  0
  1  2  1  0  0  0  0
  2  3  1  0  0  0  0
  3  4  1  0  0  0  0
  4  5  1  0  0  0  0
  5  6  1  0  0  0  0
  6  7  1  0  0  0  0
  8  9  1  0  0  0  0
  3  8  1  0  0  0  0
 10 11  1  0  0  0  0
  1 10  1  0  0  0  0
  1 12  2  0  0  0  0
  5 13  1  0  0  0  0
 13 14  1  0  0  0  0
 14 15  1  0  0  0  0
 15 16  1  0  0  0  0
M  END
>  <NAME>
2,4,6-Triethyl-1-decene (isomer 1)

>  <INCHIKEY>
GWJZLVULPAIBSS-UHFFFAOYSA-N

>  <POLYMER>
iso-PB (28)

>  <RETENTION INDEX>
SemiStdNP=1409.8

>  <FORMULA>
C16H32

>  <MW>
224

>  <EXACT MASS>
224.2504015

>  <CASNO>
121887307

>  <ID>
152

>  <COMMENT>
stereochemistry unknown

>  <NUM PEAKS>
64

>  <MASS SPECTRAL PEAKS>
19 4
27 40
29 109
30 5
38 2
39 50
40 9
41 372
42 34
43 401
44 15
50 2
51 10
52 4
53 44
54 22
55 420
56 101
57 999
58 49
65 11
66 2
67 59
68 19
69 468
70 283
71 387
72 25
77 17
79 21
80 2
81 36
82 16
83 347
84 74
85 173
86 13
91 7
93 6
95 31
96 17
97 294
98 208
99 55
100 4
109 8
110 10
111 158
112 257
113 62
114 5
123 5
124 4
125 116
126 21
127 5
139 11
152 4
153 65
154 84
155 11
167 9
195 32
196 5

$$$$
2,4-DIETHYL-6-METHYL-1-OCTENE
  ACD/LABS04122414403D
Library ID = 153
 13 12  0  0  0  0  0  0  0  0  1 V2000
   10.4098   -5.2704    0.0000 C   0  0  0  0  0  0  0  0  0  0  0  0
   11.5616   -5.9354    0.0000 C   0  0  0  0  0  0  0  0  0  0  0  0
   12.7134   -5.2704    0.0000 C   0  0  0  0  0  0  0  0  0  0  0  0
   13.8652   -5.9354    0.0000 C   0  0  0  0  0  0  0  0  0  0  0  0
   15.0170   -5.2704    0.0000 C   0  0  0  0  0  0  0  0  0  0  0  0
   15.0171   -3.9404    0.0000 C   0  0  0  0  0  0  0  0  0  0  0  0
   16.1689   -3.2754    0.0000 C   0  0  0  0  0  0  0  0  0  0  0  0
   12.7134   -3.9404    0.0000 C   0  0  0  0  0  0  0  0  0  0  0  0
   13.8652   -3.2754    0.0000 C   0  0  0  0  0  0  0  0  0  0  0  0
   10.4098   -3.9404    0.0000 C   0  0  0  0  0  0  0  0  0  0  0  0
   11.5616   -3.2754    0.0000 C   0  0  0  0  0  0  0  0  0  0  0  0
    9.2580   -5.9354    0.0000 C   0  0  0  0  0  0  0  0  0  0  0  0
   16.1689   -5.9354    0.0000 C   0  0  0  0  0  0  0  0  0  0  0  0
  1  2  1  0  0  0  0
  2  3  1  0  0  0  0
  3  4  1  0  0  0  0
  4  5  1  0  0  0  0
  5  6  1  0  0  0  0
  6  7  1  0  0  0  0
  8  9  1  0  0  0  0
  3  8  1  0  0  0  0
 10 11  1  0  0  0  0
  1 10  1  0  0  0  0
  1 12  2  0  0  0  0
  5 13  1  0  0  0  0
M  END
>  <NAME>
2,4-Diethyl-6-methyl-1-octene

>  <INCHIKEY>
WUPWPBKGPQASRM-UHFFFAOYSA-N

>  <POLYMER>
iso-PB (28)

>  <RETENTION INDEX>
SemiStdNP=1164.6

>  <FORMULA>
C13H26

>  <MW>
182

>  <EXACT MASS>
182.203451

>  <ID>
153

>  <NUM PEAKS>
51

>  <MASS SPECTRAL PEAKS>
15 6
20 5
26 6
27 78
29 225
34 3
39 94
40 13
41 520
42 74
43 514
44 21
51 10
52 4
53 64
54 33
55 566
56 306
57 999
58 47
65 17
67 70
68 19
69 334
70 528
71 756
72 44
77 16
79 24
81 33
82 39
83 913
84 149
85 12
91 10
93 6
96 6
97 116
98 10
102 2
109 8
110 39
111 227
112 249
113 24
126 7
142 2
153 54
154 3
173 2
182 4

$$$$
2,4-DIETHYL-1-OCTENE
  ACD/LABS04122413333D
CAS rn = 121887294, Library ID = 154
 12 11  0  0  0  0  0  0  0  0  1 V2000
    9.2580   -5.9354    0.0000 C   0  0  0  0  0  0  0  0  0  0  0  0
   10.4098   -5.2704    0.0000 C   0  0  0  0  0  0  0  0  0  0  0  0
   11.5616   -5.9354    0.0000 C   0  0  0  0  0  0  0  0  0  0  0  0
   12.7134   -5.2704    0.0000 C   0  0  0  0  0  0  0  0  0  0  0  0
   13.8652   -5.9354    0.0000 C   0  0  0  0  0  0  0  0  0  0  0  0
   15.0170   -5.2704    0.0000 C   0  0  0  0  0  0  0  0  0  0  0  0
   15.0171   -3.9404    0.0000 C   0  0  0  0  0  0  0  0  0  0  0  0
   16.1689   -3.2754    0.0000 C   0  0  0  0  0  0  0  0  0  0  0  0
   12.7134   -3.9404    0.0000 C   0  0  0  0  0  0  0  0  0  0  0  0
   13.8652   -3.2754    0.0000 C   0  0  0  0  0  0  0  0  0  0  0  0
   10.4098   -3.9404    0.0000 C   0  0  0  0  0  0  0  0  0  0  0  0
   11.5616   -3.2754    0.0000 C   0  0  0  0  0  0  0  0  0  0  0  0
  1  2  2  0  0  0  0
  2  3  1  0  0  0  0
  3  4  1  0  0  0  0
  4  5  1  0  0  0  0
  5  6  1  0  0  0  0
  6  7  1  0  0  0  0
  7  8  1  0  0  0  0
  9 10  1  0  0  0  0
  4  9  1  0  0  0  0
 11 12  1  0  0  0  0
  2 11  1  0  0  0  0
M  END
>  <NAME>
2,4-Diethyl-1-octene

>  <INCHIKEY>
SVGOMWNBKIAJGX-UHFFFAOYSA-N

>  <RETENTION INDEX>
SemiStdNP=1113.5

>  <POLYMER>
iso-PB (28)

>  <FORMULA>
C12H24

>  <MW>
168

>  <EXACT MASS>
168.1878

>  <CASNO>
121887294

>  <ID>
154

>  <NUM PEAKS>
56

>  <MASS SPECTRAL PEAKS>
14 3
15 2
23 3
26 1
27 56
29 121
35 2
39 81
40 17
41 422
42 71
43 338
44 9
47 1
48 1
51 9
52 5
53 50
54 42
55 415
56 448
57 999
58 46
60 1
65 9
66 3
67 58
68 34
69 439
70 659
71 307
72 18
77 10
78 3
79 15
80 3
81 19
82 6
83 185
84 24
85 3
91 7
93 3
95 11
96 35
97 72
98 364
99 35
111 37
112 12
113 3
138 2
139 34
140 6
153 1
168 8

$$$$
C11H22
                                 
No Structure
  0  0  0  0  0  0  0  0  0  0  0
>  <NAME>
C11H22

>  <RETENTION INDEX>
SemiStdNP=1047.5

>  <POLYMER>
iso-PB (28)

>  <FORMULA>
C11H22

>  <MW>
154

>  <EXACT MASS>
154.172151

>  <ID>
155

>  <COMMENT>
id unsure

>  <NUM PEAKS>
43

>  <MASS SPECTRAL PEAKS>
15 3
16 9
20 4
25 5
27 56
29 118
30 3
33 2
39 58
40 5
41 238
42 41
43 283
44 8
45 4
52 4
53 36
54 35
55 278
56 177
57 999
58 46
60 5
65 8
66 4
67 23
68 12
69 111
70 143
77 10
81 17
83 36
84 12
96 4
97 16
98 189
99 22
101 1
112 50
123 2
125 5
154 40
155 7

$$$$
C11H24
                                 
No Structure
  0  0  0  0  0  0  0  0  0  0  0
>  <NAME>
C11H24

>  <RETENTION INDEX>
SemiStdNP=1044.6

>  <POLYMER>
iso-PB (28)

>  <FORMULA>
C11H24

>  <MW>
156

>  <EXACT MASS>
156.1878

>  <ID>
156

>  <COMMENT>
id unsure

>  <NUM PEAKS>
41

>  <MASS SPECTRAL PEAKS>
11 7
22 4
25 11
27 49
29 99
37 4
39 32
40 9
41 211
42 37
43 441
44 14
53 11
54 7
55 62
56 80
57 999
58 50
67 3
69 36
70 56
71 296
72 17
73 3
77 4
82 7
83 8
84 17
85 172
86 9
97 17
98 101
99 26
116 5
121 8
123 3
126 72
127 39
138 4
196 4
220 4

$$$$
C11H22
                                 
No Structure
  0  0  0  0  0  0  0  0  0  0  0
>  <NAME>
C11H22

>  <RETENTION INDEX>
SemiStdNP=1014.8

>  <POLYMER>
iso-PB (28)

>  <FORMULA>
C11H22

>  <MW>
154

>  <EXACT MASS>
154.172151

>  <ID>
157

>  <COMMENT>
id unsure

>  <NUM PEAKS>
49

>  <MASS SPECTRAL PEAKS>
14 9
15 16
27 74
29 111
33 8
39 80
41 317
42 34
43 98
44 6
50 11
52 8
53 67
54 20
55 999
56 99
57 94
59 7
65 16
67 151
68 23
69 733
70 272
71 30
77 15
79 31
81 75
82 43
83 283
84 51
85 6
91 10
93 13
95 33
97 272
98 57
103 9
108 8
109 17
110 4
112 91
113 8
121 10
123 17
125 29
134 8
138 17
152 9
154 75

$$$$
2,4,6-TRIMETHYL-1-NONENE (ISOMER 2)
  ACD/LABS04052416563D
CAS rn = 55771409, Library ID = 158
 12 11  0  0  0  0  0  0  0  0  1 V2000
    8.5759   -7.6236    0.0000 C   0  0  0  0  0  0  0  0  0  0  0  0
    9.7277   -6.9586    0.0000 C   0  0  0  0  0  0  0  0  0  0  0  0
   10.8796   -7.6236    0.0000 C   0  0  0  0  0  0  0  0  0  0  0  0
    9.7277   -5.6286    0.0000 C   0  0  0  0  0  0  0  0  0  0  0  0
   12.0314   -6.9586    0.0000 C   0  0  0  0  0  0  0  0  0  0  0  0
   12.0314   -5.6286    0.0000 C   0  0  0  0  0  0  0  0  0  0  0  0
   13.1832   -7.6236    0.0000 C   0  0  0  0  0  0  0  0  0  0  0  0
   14.3350   -6.9586    0.0000 C   0  0  0  0  0  0  0  0  0  0  0  0
   14.3350   -5.6286    0.0000 C   0  0  0  0  0  0  0  0  0  0  0  0
   15.4868   -7.6236    0.0000 C   0  0  0  0  0  0  0  0  0  0  0  0
   16.6386   -6.9586    0.0000 C   0  0  0  0  0  0  0  0  0  0  0  0
   16.6386   -5.6286    0.0000 C   0  0  0  0  0  0  0  0  0  0  0  0
  1  2  2  0  0  0  0
  2  3  1  0  0  0  0
  2  4  1  0  0  0  0
  3  5  1  0  0  0  0
  5  6  1  0  0  0  0
  5  7  1  0  0  0  0
  7  8  1  0  0  0  0
  8  9  1  0  0  0  0
  8 10  1  0  0  0  0
 10 11  1  0  0  0  0
 11 12  1  0  0  0  0
M  END
>  <NAME>
2,4,6-Trimethyl-1-nonene (isomer 2)

>  <INCHIKEY>
QFMQAIUZMMQKTB-UHFFFAOYSA-N

>  <POLYMER>
iso-PP (23)

>  <RETENTION INDEX>
SemiStdNP=1078.1

>  <FORMULA>
C12H24

>  <MW>
168

>  <EXACT MASS>
168.1878

>  <CASNO>
55771409

>  <ID>
158

>  <COMMENT>
stereochemistry unknown

>  <NUM PEAKS>
33

>  <MASS SPECTRAL PEAKS>
20 11
27 118
29 213
39 141
40 27
41 487
42 82
43 999
44 33
53 67
54 12
55 507
56 200
57 821
58 33
67 63
68 31
69 893
70 561
71 671
72 37
79 11
81 23
82 24
83 398
84 273
85 64
95 11
97 98
111 206
112 191
125 75
147 11

$$$$
BIS(2-(BENZOYLOXY)ETHYL) TEREPHTHALATE
  ACD/LABS05152514272D
CAS rn = 87075089, Library ID = 159
 34 36  0  0  0  0  0  0  0  0  1 V2000
   13.9554  -15.0630    0.0000 C   0  0  0  0  0  0  0  0  0  0  0  0
   12.8035  -14.3980    0.0000 O   0  0  0  0  0  0  0  0  0  0  0  0
   13.9554  -16.3930    0.0000 O   0  0  0  0  0  0  0  0  0  0  0  0
   11.6517  -15.0630    0.0000 C   0  0  0  0  0  0  0  0  0  0  0  0
   10.4999  -14.3980    0.0000 C   0  0  0  0  0  0  0  0  0  0  0  0
    9.3481  -15.0630    0.0000 O   0  0  0  0  0  0  0  0  0  0  0  0
    8.1963  -14.3980    0.0000 C   0  0  0  0  0  0  0  0  0  0  0  0
    8.1963  -13.0680    0.0000 O   0  0  0  0  0  0  0  0  0  0  0  0
    7.0445  -15.0631    0.0000 C   0  0  0  0  0  0  0  0  0  0  0  0
    7.0445  -16.3931    0.0000 C   0  0  0  0  0  0  0  0  0  0  0  0
    5.8927  -14.3981    0.0000 C   0  0  0  0  0  0  0  0  0  0  0  0
    5.8927  -17.0581    0.0000 C   0  0  0  0  0  0  0  0  0  0  0  0
    4.7409  -15.0631    0.0000 C   0  0  0  0  0  0  0  0  0  0  0  0
    4.7409  -16.3931    0.0000 C   0  0  0  0  0  0  0  0  0  0  0  0
   25.4736  -11.0729    0.0000 C   0  0  0  0  0  0  0  0  0  0  0  0
   26.6254  -10.4079    0.0000 C   0  0  0  0  0  0  0  0  0  0  0  0
   25.4736  -12.4030    0.0000 C   0  0  0  0  0  0  0  0  0  0  0  0
   27.7772  -11.0729    0.0000 C   0  0  0  0  0  0  0  0  0  0  0  0
   26.6254  -13.0680    0.0000 C   0  0  0  0  0  0  0  0  0  0  0  0
   27.7772  -12.4030    0.0000 C   0  0  0  0  0  0  0  0  0  0  0  0
   24.3218  -13.0680    0.0000 C   0  0  0  0  0  0  0  0  0  0  0  0
   23.1699  -12.4030    0.0000 O   0  0  0  0  0  0  0  0  0  0  0  0
   24.3218  -14.3980    0.0000 O   0  0  0  0  0  0  0  0  0  0  0  0
   22.0181  -13.0680    0.0000 C   0  0  0  0  0  0  0  0  0  0  0  0
   20.8662  -12.4030    0.0000 C   0  0  0  0  0  0  0  0  0  0  0  0
   19.7144  -13.0680    0.0000 O   0  0  0  0  0  0  0  0  0  0  0  0
   18.5626  -12.4030    0.0000 C   0  0  0  0  0  0  0  0  0  0  0  0
   18.5626  -11.0729    0.0000 O   0  0  0  0  0  0  0  0  0  0  0  0
   17.4108  -13.0680    0.0000 C   0  0  0  0  0  0  0  0  0  0  0  0
   17.4108  -14.3980    0.0000 C   0  0  0  0  0  0  0  0  0  0  0  0
   16.2590  -12.4030    0.0000 C   0  0  0  0  0  0  0  0  0  0  0  0
   16.2590  -15.0630    0.0000 C   0  0  0  0  0  0  0  0  0  0  0  0
   15.1072  -13.0680    0.0000 C   0  0  0  0  0  0  0  0  0  0  0  0
   15.1072  -14.3980    0.0000 C   0  0  0  0  0  0  0  0  0  0  0  0
  1  2  1  0  0  0  0
  1  3  2  0  0  0  0
  2  4  1  0  0  0  0
  4  5  1  0  0  0  0
  6  7  1  0  0  0  0
  5  6  1  0  0  0  0
  7  8  2  0  0  0  0
  9 10  1  0  0  0  0
  9 11  2  0  0  0  0
 10 12  2  0  0  0  0
 11 13  1  0  0  0  0
 12 14  1  0  0  0  0
 13 14  2  0  0  0  0
  7  9  1  0  0  0  0
 15 16  2  0  0  0  0
 15 17  1  0  0  0  0
 16 18  1  0  0  0  0
 17 19  2  0  0  0  0
 18 20  2  0  0  0  0
 19 20  1  0  0  0  0
 17 21  1  0  0  0  0
 21 22  1  0  0  0  0
 21 23  2  0  0  0  0
 22 24  1  0  0  0  0
 24 25  1  0  0  0  0
 26 27  1  0  0  0  0
 25 26  1  0  0  0  0
 27 28  2  0  0  0  0
 29 30  1  0  0  0  0
 29 31  2  0  0  0  0
 30 32  2  0  0  0  0
 31 33  1  0  0  0  0
 32 34  1  0  0  0  0
 33 34  2  0  0  0  0
 27 29  1  0  0  0  0
  1 34  1  0  0  0  0
M  END
>  <NAME>
bis(2-(Benzoyloxy)ethyl) terephthalate

>  <INCHIKEY>
JEWFVAIIRNKVIL-UHFFFAOYSA-N

>  <POLYMER>
PET (8)

>  <RETENTION INDEX>
SemiStdNP=3755.5

>  <FORMULA>
C26H22O8

>  <MW>
462

>  <EXACT MASS>
462.131468

>  <CASNO>
87075089

>  <ID>
159

>  <RETENTION INDEX>
3755.5

>  <NUM PEAKS>
40

>  <MASS SPECTRAL PEAKS>
27 3
28 25
29 3
32 2
39 2
44 6
50 15
51 41
52 2
57 1
65 7
74 3
75 10
76 33
77 203
78 15
91 1
103 14
104 60
105 999
106 76
107 3
121 4
122 4
131 4
132 23
148 10
149 168
150 17
151 1
152 3
153 3
181 15
191 2
207 3
251 2
297 421
298 80
299 12
341 2

$$$$
O,O'-(ETHANE-1,2-DIYL) DIVINYL DITEREPHTHALATE
  ACD/LABS05152514243D
CAS rn = 1686087251, Library ID = 160
 30 31  0  0  0  0  0  0  0  0  1 V2000
    7.3775  -16.2891    0.0000 C   0  0  0  0  0  0  0  0  0  0  0  0
    8.5293  -16.9541    0.0000 C   0  0  0  0  0  0  0  0  0  0  0  0
   10.8330  -16.9541    0.0000 C   0  0  0  0  0  0  0  0  0  0  0  0
    9.6812  -16.2891    0.0000 O   0  0  0  0  0  0  0  0  0  0  0  0
   10.8330  -18.2841    0.0000 O   0  0  0  0  0  0  0  0  0  0  0  0
   22.3511  -12.9640    0.0000 C   0  0  0  0  0  0  0  0  0  0  0  0
   23.5029  -12.2990    0.0000 C   0  0  0  0  0  0  0  0  0  0  0  0
   29.2620  -12.9640    0.0000 C   0  0  0  0  0  0  0  0  0  0  0  0
   28.1102  -12.2990    0.0000 C   0  0  0  0  0  0  0  0  0  0  0  0
   22.3511  -14.2940    0.0000 C   0  0  0  0  0  0  0  0  0  0  0  0
   24.6547  -12.9640    0.0000 C   0  0  0  0  0  0  0  0  0  0  0  0
   23.5029  -14.9590    0.0000 C   0  0  0  0  0  0  0  0  0  0  0  0
   24.6547  -14.2940    0.0000 C   0  0  0  0  0  0  0  0  0  0  0  0
   25.8065  -12.2990    0.0000 C   0  0  0  0  0  0  0  0  0  0  0  0
   26.9584  -12.9640    0.0000 O   0  0  0  0  0  0  0  0  0  0  0  0
   25.8065  -10.9690    0.0000 O   0  0  0  0  0  0  0  0  0  0  0  0
   21.1993  -14.9590    0.0000 C   0  0  0  0  0  0  0  0  0  0  0  0
   20.0475  -14.2940    0.0000 O   0  0  0  0  0  0  0  0  0  0  0  0
   21.1993  -16.2890    0.0000 O   0  0  0  0  0  0  0  0  0  0  0  0
   18.8957  -14.9590    0.0000 C   0  0  0  0  0  0  0  0  0  0  0  0
   17.7438  -14.2940    0.0000 C   0  0  0  0  0  0  0  0  0  0  0  0
   16.5920  -14.9590    0.0000 O   0  0  0  0  0  0  0  0  0  0  0  0
   15.4402  -14.2940    0.0000 C   0  0  0  0  0  0  0  0  0  0  0  0
   15.4402  -12.9640    0.0000 O   0  0  0  0  0  0  0  0  0  0  0  0
   14.2884  -14.9590    0.0000 C   0  0  0  0  0  0  0  0  0  0  0  0
   14.2884  -16.2890    0.0000 C   0  0  0  0  0  0  0  0  0  0  0  0
   13.1366  -14.2940    0.0000 C   0  0  0  0  0  0  0  0  0  0  0  0
   13.1366  -16.9540    0.0000 C   0  0  0  0  0  0  0  0  0  0  0  0
   11.9848  -14.9590    0.0000 C   0  0  0  0  0  0  0  0  0  0  0  0
   11.9848  -16.2890    0.0000 C   0  0  0  0  0  0  0  0  0  0  0  0
  1  2  2  0  0  0  0
  2  4  1  0  0  0  0
  3  4  1  0  0  0  0
  3  5  2  0  0  0  0
  6  7  2  0  0  0  0
  6 10  1  0  0  0  0
  7 11  1  0  0  0  0
  8  9  2  0  0  0  0
  9 15  1  0  0  0  0
 10 12  2  0  0  0  0
 11 13  2  0  0  0  0
 11 14  1  0  0  0  0
 12 13  1  0  0  0  0
 14 15  1  0  0  0  0
 14 16  2  0  0  0  0
 10 17  1  0  0  0  0
 17 18  1  0  0  0  0
 17 19  2  0  0  0  0
 18 20  1  0  0  0  0
 20 21  1  0  0  0  0
 22 23  1  0  0  0  0
 21 22  1  0  0  0  0
 23 24  2  0  0  0  0
 25 26  1  0  0  0  0
 25 27  2  0  0  0  0
 26 28  2  0  0  0  0
 27 29  1  0  0  0  0
 28 30  1  0  0  0  0
 29 30  2  0  0  0  0
 23 25  1  0  0  0  0
  3 30  1  0  0  0  0
M  END
>  <NAME>
O,O'-(Ethane-1,2-diyl) divinyl diterephthalate

>  <INCHIKEY>
MQBJNALIMKDGLR-UHFFFAOYSA-N

>  <POLYMER>
PET (8)

>  <RETENTION INDEX>
SemiStdNP=3071.1

>  <FORMULA>
C22H18O8

>  <MW>
410

>  <EXACT MASS>
410.100168

>  <CASNO>
1686087251

>  <ID>
160

>  <RETENTION INDEX>
3071.1

>  <NUM PEAKS>
114

>  <MASS SPECTRAL PEAKS>
15 3
26 2
27 7
29 2
37 1
38 1
39 4
42 4
43 3
44 4
45 1
50 30
51 6
52 6
53 2
63 2
64 1
65 32
66 40
68 1
74 7
75 34
76 144
77 19
78 1
84 3
88 11
89 2
90 2
91 8
92 4
93 5
98 1
102 1
103 42
104 309
105 48
106 5
112 6
118 3
119 10
120 7
121 30
122 3
126 14
129 21
130 2
131 10
132 56
133 9
134 1
139 2
140 12
147 50
148 93
149 86
150 9
151 6
152 13
153 2
162 154
163 5
165 2
168 1
173 7
175 146
176 18
177 39
178 4
179 2
180 12
181 2
191 117
192 13
193 13
194 2
195 1
196 25
197 4
208 3
209 5
212 3
217 2
219 138
220 18
221 3
223 12
224 5
225 3
240 74
241 11
242 2
251 7
252 1
253 1
268 12
269 2
296 86
297 17
298 2
324 11
325 571
326 110
327 17
328 44
329 4
337 4
338 1
339 3
341 2
367 999
368 219
369 37
370 5

$$$$
2-(BENZOYLOXY)ETHYL VINYL TEREPHTHALATE
  ACD/LABS05152514212D
CAS rn = 2823344552, Library ID = 161
 25 26  0  0  0  0  0  0  0  0  1 V2000
   22.3511  -12.9640    0.0000 C   0  0  0  0  0  0  0  0  0  0  0  0
   23.5029  -12.2990    0.0000 C   0  0  0  0  0  0  0  0  0  0  0  0
   29.2620  -12.9640    0.0000 C   0  0  0  0  0  0  0  0  0  0  0  0
   28.1102  -12.2990    0.0000 C   0  0  0  0  0  0  0  0  0  0  0  0
   22.3511  -14.2940    0.0000 C   0  0  0  0  0  0  0  0  0  0  0  0
   24.6547  -12.9640    0.0000 C   0  0  0  0  0  0  0  0  0  0  0  0
   23.5029  -14.9590    0.0000 C   0  0  0  0  0  0  0  0  0  0  0  0
   24.6547  -14.2940    0.0000 C   0  0  0  0  0  0  0  0  0  0  0  0
   25.8065  -12.2990    0.0000 C   0  0  0  0  0  0  0  0  0  0  0  0
   26.9584  -12.9640    0.0000 O   0  0  0  0  0  0  0  0  0  0  0  0
   25.8065  -10.9690    0.0000 O   0  0  0  0  0  0  0  0  0  0  0  0
   21.1993  -14.9590    0.0000 C   0  0  0  0  0  0  0  0  0  0  0  0
   20.0475  -14.2940    0.0000 O   0  0  0  0  0  0  0  0  0  0  0  0
   21.1993  -16.2890    0.0000 O   0  0  0  0  0  0  0  0  0  0  0  0
   18.8957  -14.9590    0.0000 C   0  0  0  0  0  0  0  0  0  0  0  0
   17.7438  -14.2940    0.0000 C   0  0  0  0  0  0  0  0  0  0  0  0
   16.5920  -14.9590    0.0000 O   0  0  0  0  0  0  0  0  0  0  0  0
   15.4402  -14.2940    0.0000 C   0  0  0  0  0  0  0  0  0  0  0  0
   15.4402  -12.9640    0.0000 O   0  0  0  0  0  0  0  0  0  0  0  0
   14.2884  -14.9590    0.0000 C   0  0  0  0  0  0  0  0  0  0  0  0
   14.2884  -16.2890    0.0000 C   0  0  0  0  0  0  0  0  0  0  0  0
   13.1366  -14.2940    0.0000 C   0  0  0  0  0  0  0  0  0  0  0  0
   13.1366  -16.9540    0.0000 C   0  0  0  0  0  0  0  0  0  0  0  0
   11.9848  -14.9590    0.0000 C   0  0  0  0  0  0  0  0  0  0  0  0
   11.9848  -16.2890    0.0000 C   0  0  0  0  0  0  0  0  0  0  0  0
  1  2  2  0  0  0  0
  1  5  1  0  0  0  0
  2  6  1  0  0  0  0
  3  4  2  0  0  0  0
  4 10  1  0  0  0  0
  5  7  2  0  0  0  0
  6  8  2  0  0  0  0
  6  9  1  0  0  0  0
  7  8  1  0  0  0  0
  9 10  1  0  0  0  0
  9 11  2  0  0  0  0
  5 12  1  0  0  0  0
 12 13  1  0  0  0  0
 12 14  2  0  0  0  0
 13 15  1  0  0  0  0
 15 16  1  0  0  0  0
 17 18  1  0  0  0  0
 16 17  1  0  0  0  0
 18 19  2  0  0  0  0
 20 21  1  0  0  0  0
 20 22  2  0  0  0  0
 21 23  2  0  0  0  0
 22 24  1  0  0  0  0
 23 25  1  0  0  0  0
 24 25  2  0  0  0  0
 18 20  1  0  0  0  0
M  END
>  <NAME>
2-(Benzoyloxy)ethyl vinyl terephthalate

>  <INCHIKEY>
UHRGUFPZMNGRDQ-UHFFFAOYSA-N

>  <POLYMER>
PET (8)

>  <RETENTION INDEX>
SemiStdNP=2607

>  <FORMULA>
C19H16O6

>  <MW>
340

>  <EXACT MASS>
340.094688

>  <CASNO>
2823344552

>  <ID>
161

>  <RETENTION INDEX>
2607

>  <NUM PEAKS>
69

>  <MASS SPECTRAL PEAKS>
15 4
26 2
27 6
29 2
38 1
39 5
42 2
43 3
44 4
45 1
50 31
51 39
52 7
53 2
62 1
63 2
64 1
65 19
66 10
74 7
75 27
76 93
77 192
78 13
79 1
89 1
90 1
91 4
92 1
93 3
103 33
104 174
105 374
106 28
107 2
118 1
119 3
120 1
121 15
122 3
127 1
131 11
132 49
133 6
147 11
148 8
149 492
150 48
151 7
152 9
153 9
154 1
166 1
175 54
176 6
180 1
181 48
182 7
191 5
193 1
207 1
208 1
209 1
225 3
267 4
297 999
298 181
299 26
300 3

$$$$
4-((VINYLOXY)CARBONYL)BENZOIC ACID
  ACD/LABS05152514163D
CAS rn = 116532093, Library ID = 162
 14 14  0  0  0  0  0  0  0  0  1 V2000
   11.8918  -10.7139    0.0000 C   0  0  0  0  0  0  0  0  0  0  0  0
   13.0436  -10.0489    0.0000 C   0  0  0  0  0  0  0  0  0  0  0  0
   18.8027  -10.7139    0.0000 C   0  0  0  0  0  0  0  0  0  0  0  0
   17.6508  -10.0489    0.0000 C   0  0  0  0  0  0  0  0  0  0  0  0
   11.8918  -12.0439    0.0000 C   0  0  0  0  0  0  0  0  0  0  0  0
   14.1954  -10.7139    0.0000 C   0  0  0  0  0  0  0  0  0  0  0  0
   13.0436  -12.7089    0.0000 C   0  0  0  0  0  0  0  0  0  0  0  0
   14.1954  -12.0439    0.0000 C   0  0  0  0  0  0  0  0  0  0  0  0
   15.3472  -10.0489    0.0000 C   0  0  0  0  0  0  0  0  0  0  0  0
   16.4990  -10.7139    0.0000 O   0  0  0  0  0  0  0  0  0  0  0  0
   15.3472   -8.7189    0.0000 O   0  0  0  0  0  0  0  0  0  0  0  0
   10.7400  -12.7089    0.0000 C   0  0  0  0  0  0  0  0  0  0  0  0
    9.5882  -12.0439    0.0000 O   0  0  0  0  0  0  0  0  0  0  0  0
   10.7400  -14.0389    0.0000 O   0  0  0  0  0  0  0  0  0  0  0  0
  1  2  2  0  0  0  0
  1  5  1  0  0  0  0
  2  6  1  0  0  0  0
  3  4  2  0  0  0  0
  4 10  1  0  0  0  0
  5  7  2  0  0  0  0
  6  8  2  0  0  0  0
  6  9  1  0  0  0  0
  7  8  1  0  0  0  0
  9 10  1  0  0  0  0
  9 11  2  0  0  0  0
  5 12  1  0  0  0  0
 12 13  1  0  0  0  0
 12 14  2  0  0  0  0
M  END
>  <NAME>
4-((Vinyloxy)carbonyl)benzoic acid

>  <INCHIKEY>
ZVKPGHYZRCHUJO-UHFFFAOYSA-N

>  <POLYMER>
PET (8)

>  <RETENTION INDEX>
SemiStdNP=1652.6

>  <FORMULA>
C10H8O4

>  <MW>
192

>  <EXACT MASS>
192.042258

>  <CASNO>
116532093

>  <ID>
162

>  <RETENTION INDEX>
1652.6

>  <NUM PEAKS>
62

>  <MASS SPECTRAL PEAKS>
14 1
15 8
26 3
27 11
28 7
29 3
37 3
38 6
39 34
40 2
41 1
42 5
43 3
44 2
45 8
49 2
50 55
51 37
52 12
53 10
55 1
60 1
61 1
62 2
63 5
64 4
65 219
66 21
67 1
73 4
74 27
75 43
76 63
77 10
78 1
89 1
91 2
92 3
93 30
94 2
102 1
103 20
104 31
105 6
119 2
120 2
121 206
122 22
123 3
131 1
132 3
147 2
148 2
149 999
150 82
151 9
152 1
166 8
167 1
175 5
176 1
192 1

$$$$
DIVINYL TEREPHTHALATE
  ACD/LABS05152514073D
CAS rn = 13846190, Library ID = 163
 16 16  0  0  0  0  0  0  0  0  1 V2000
   11.8918  -10.7139    0.0000 C   0  0  0  0  0  0  0  0  0  0  0  0
   13.0436  -10.0489    0.0000 C   0  0  0  0  0  0  0  0  0  0  0  0
   18.8027  -10.7139    0.0000 C   0  0  0  0  0  0  0  0  0  0  0  0
   17.6508  -10.0489    0.0000 C   0  0  0  0  0  0  0  0  0  0  0  0
   11.8918  -12.0439    0.0000 C   0  0  0  0  0  0  0  0  0  0  0  0
   14.1954  -10.7139    0.0000 C   0  0  0  0  0  0  0  0  0  0  0  0
   13.0436  -12.7089    0.0000 C   0  0  0  0  0  0  0  0  0  0  0  0
   14.1954  -12.0439    0.0000 C   0  0  0  0  0  0  0  0  0  0  0  0
   15.3472  -10.0489    0.0000 C   0  0  0  0  0  0  0  0  0  0  0  0
   16.4990  -10.7139    0.0000 O   0  0  0  0  0  0  0  0  0  0  0  0
   15.3472   -8.7189    0.0000 O   0  0  0  0  0  0  0  0  0  0  0  0
   10.7400  -12.7089    0.0000 C   0  0  0  0  0  0  0  0  0  0  0  0
    9.5882  -12.0439    0.0000 O   0  0  0  0  0  0  0  0  0  0  0  0
   10.7400  -14.0389    0.0000 O   0  0  0  0  0  0  0  0  0  0  0  0
    8.4363  -12.7089    0.0000 C   0  0  0  0  0  0  0  0  0  0  0  0
    7.2845  -12.0439    0.0000 C   0  0  0  0  0  0  0  0  0  0  0  0
  1  2  2  0  0  0  0
  1  5  1  0  0  0  0
  2  6  1  0  0  0  0
  3  4  2  0  0  0  0
  4 10  1  0  0  0  0
  5  7  2  0  0  0  0
  6  8  2  0  0  0  0
  6  9  1  0  0  0  0
  7  8  1  0  0  0  0
  9 10  1  0  0  0  0
  9 11  2  0  0  0  0
  5 12  1  0  0  0  0
 12 13  1  0  0  0  0
 12 14  2  0  0  0  0
 13 15  1  0  0  0  0
 15 16  2  0  0  0  0
M  END
>  <NAME>
Divinyl terephthalate

>  <INCHIKEY>
IHXBXGHGYCSRAP-UHFFFAOYSA-N

>  <POLYMER>
PET (8)

>  <RETENTION INDEX>
SemiStdNP=1560.6

>  <FORMULA>
C12H10O4

>  <MW>
218

>  <EXACT MASS>
218.057909

>  <CASNO>
13846190

>  <ID>
163

>  <RETENTION INDEX>
1560.6

>  <NUM PEAKS>
65

>  <MASS SPECTRAL PEAKS>
14 3
15 13
25 1
26 5
27 15
28 14
29 3
37 1
38 5
39 8
40 1
41 1
42 7
43 3
44 4
45 1
49 2
50 94
51 15
52 40
53 6
61 1
62 2
63 4
64 2
65 24
66 86
67 1
73 4
74 28
75 40
76 244
77 21
78 1
87 2
89 4
90 5
91 26
92 3
93 4
102 1
103 8
104 480
105 38
106 2
107 1
118 8
119 18
120 2
121 17
122 2
131 1
132 163
133 14
134 1
145 1
146 3
147 132
148 14
149 23
150 2
174 1
175 999
176 104
177 11

$$$$
VINYL BENZOATE
  ACD/LABS05152513532D
CAS rn = 769788, Library ID = 164
 11 11  0  0  0  0  0  0  0  0  1 V2000
   16.6143  -14.8517    0.0000 C   0  0  0  0  0  0  0  0  0  0  0  0
   17.7610  -14.1795    0.0000 C   0  0  0  0  0  0  0  0  0  0  0  0
   22.3416  -12.8297    0.0000 C   0  0  0  0  0  0  0  0  0  0  0  0
   21.1857  -12.1718    0.0000 C   0  0  0  0  0  0  0  0  0  0  0  0
   15.4676  -14.2095    0.0000 C   0  0  0  0  0  0  0  0  0  0  0  0
   17.7610  -12.8651    0.0000 C   0  0  0  0  0  0  0  0  0  0  0  0
   15.4582  -12.8796    0.0000 C   0  0  0  0  0  0  0  0  0  0  0  0
   16.6049  -12.2074    0.0000 C   0  0  0  0  0  0  0  0  0  0  0  0
   18.8998  -12.1975    0.0000 C   0  0  0  0  0  0  0  0  0  0  0  0
   20.0390  -12.8440    0.0000 O   0  0  0  0  0  0  0  0  0  0  0  0
   18.8906  -10.8674    0.0000 O   0  0  0  0  0  0  0  0  0  0  0  0
  1  2  2  0  0  0  0
  1  5  1  0  0  0  0
  2  6  1  0  0  0  0
  3  4  2  0  0  0  0
  4 10  1  0  0  0  0
  5  7  2  0  0  0  0
  6  8  2  0  0  0  0
  6  9  1  0  0  0  0
  7  8  1  0  0  0  0
  9 10  1  0  0  0  0
  9 11  2  0  0  0  0
M  END
>  <NAME>
Vinyl benzoate

>  <INCHIKEY>
KOZCZZVUFDCZGG-UHFFFAOYSA-N

>  <POLYMER>
PET (8)

>  <RETENTION INDEX>
SemiStdNP=1128.9

>  <FORMULA>
C9H8O2

>  <MW>
148

>  <EXACT MASS>
148.052429

>  <CASNO>
769788

>  <ID>
164

>  <RETENTION INDEX>
1128.9

>  <NUM PEAKS>
42

>  <MASS SPECTRAL PEAKS>
14 4
15 14
21 1
25 1
26 9
27 27
28 22
29 4
32 1
37 4
38 11
39 14
40 2
41 1
42 8
43 2
44 3
49 5
50 76
51 227
52 13
53 3
61 1
62 3
63 3
64 1
65 5
66 3
73 4
74 22
75 15
76 28
77 686
78 42
79 1
91 2
94 1
104 4
105 999
106 73
107 5
148 3

$$$$
n-Butyl methacrylate
                                 
No Structure
  0  0  0  0  0  0  0  0  0  0  0
>  <NAME>
n-Butyl methacrylate

>  <INCHIKEY>
SOGAXMICEFXMKE-UHFFFAOYSA-N

>  <POLYMER>
PnBMA (1); SBMA (7)

>  <RETENTION INDEX>
SemiStdNP=995.9

>  <FORMULA>
C8H14O2

>  <MW>
142

>  <EXACT MASS>
142.09938

>  <CASNO>
97881

>  <ID>
165

>  <NUM PEAKS>
53

>  <MASS SPECTRAL PEAKS>
26 8
27 61
29 120
30 5
31 10
37 4
38 13
39 214
40 46
41 676
42 42
43 40
44 6
45 15
50 2
51 3
52 1
53 10
54 5
55 87
56 452
57 70
58 8
59 36
60 1
67 2
68 16
69 999
70 57
71 9
72 3
73 9
74 11
81 2
82 4
83 2
84 3
85 6
86 31
87 704
88 35
89 4
95 3
96 3
97 5
98 1
99 14
100 6
101 3
109 1
113 14
114 3
127 2

$$$$
SBMA trimer 1
                                 
No Structure
  0  0  0  0  0  0  0  0  0  0  0
>  <NAME>
SBMA trimer 1

>  <POLYMER>
SBMA (7)

>  <RETENTION INDEX>
SemiStdNP=2380.1

>  <ID>
166

>  <NUM PEAKS>
90

>  <MASS SPECTRAL PEAKS>
26 4
27 31
29 158
39 35
41 158
42 12
43 32
45 4
50 5
51 33
52 5
53 17
55 38
56 45
57 142
58 5
63 11
65 31
69 5
71 8
74 124
75 25
76 7
77 101
78 49
79 33
87 70
89 14
90 4
91 999
92 78
99 8
101 9
102 27
103 142
104 75
105 78
107 42
115 132
116 48
117 116
118 40
121 31
127 22
128 56
129 140
130 58
131 688
132 85
133 9
141 15
142 5
143 107
144 9
145 16
157 8
159 78
160 9
165 9
172 4
173 7
176 9
177 625
178 100
179 15
189 6
190 6
191 24
192 10
202 9
203 11
204 11
205 40
206 19
207 244
208 93
209 17
217 5
218 15
219 19
220 28
221 156
222 29
232 23
233 71
234 11
248 4
259 5
276 14
277 16

$$$$
SBMA trimer 2
                                 
No Structure
  0  0  0  0  0  0  0  0  0  0  0
>  <NAME>
SBMA trimer 2

>  <POLYMER>
SBMA (7)

>  <RETENTION INDEX>
SemiStdNP=2417.3

>  <ID>
167

>  <NUM PEAKS>
86

>  <MASS SPECTRAL PEAKS>
27 29
29 170
30 4
39 39
41 160
42 12
43 32
45 4
51 30
52 7
53 17
55 40
56 51
57 148
63 9
65 31
69 7
71 10
74 142
75 28
76 9
77 99
78 50
79 34
87 50
89 15
91 999
92 77
96 9
99 7
101 9
102 28
103 150
104 74
105 81
106 4
107 45
115 134
116 50
117 117
118 37
121 31
127 18
128 57
129 148
130 69
131 683
132 86
141 16
142 6
143 81
144 5
145 16
157 7
159 73
160 9
165 11
173 12
176 6
177 623
178 98
179 15
189 8
191 23
192 5
202 6
203 10
204 11
205 40
206 19
207 257
208 79
209 12
217 7
218 16
219 17
220 31
221 207
222 41
232 14
233 65
234 8
248 4
259 6
276 11
277 11

$$$$
SBMA trimer 3
                                 
No Structure
  0  0  0  0  0  0  0  0  0  0  0
>  <NAME>
SBMA trimer 3

>  <POLYMER>
SBMA (7)

>  <RETENTION INDEX>
SemiStdNP=2494.8

>  <ID>
168

>  <NUM PEAKS>
86

>  <MASS SPECTRAL PEAKS>
27 24
29 123
39 39
41 144
42 6
43 30
50 6
51 25
52 6
53 13
55 23
56 10
57 62
63 10
64 2
65 72
66 4
67 6
69 57
70 11
76 6
77 84
78 44
79 34
83 4
87 33
89 16
90 6
91 784
92 66
96 8
102 20
103 106
104 53
105 164
106 14
107 27
115 116
116 39
117 114
118 329
119 43
121 48
127 17
128 68
129 118
130 33
131 244
132 31
141 22
142 19
143 119
144 104
145 999
146 119
147 34
155 5
156 5
157 46
158 63
159 13
160 4
161 76
162 9
163 15
167 4
169 3
171 18
172 99
173 17
175 15
176 146
177 25
179 3
189 23
190 17
191 11
208 10
232 185
233 32
246 175
247 33
248 5
277 66
278 14
281 4

$$$$
